#
#   ____ _ ____         ___                   ____                   ___       _             __                
#  / ___(_)  _ \   _   / _ \ _ __   ___ _ __ / ___|  ___  ___  ___  |_ _|_ __ | |_ ___ _ __ / _| __ _  ___ ___ 
# | |  _| | | | |_| |_| | | | '_ \ / _ \ '_ \\___ \ / _ \/ _ \/ __|  | || '_ \| __/ _ \ '__| |_ / _` |/ __/ _ \
# | |_| | | |_| |_   _| |_| | |_) |  __/ | | |___) |  __/  __/\__ \  | || | | | ||  __/ |  |  _| (_| | (_|  __/
#  \____|_|____/  |_|  \___/| .__/ \___|_| |_|____/ \___|\___||___/ |___|_| |_|\__\___|_|  |_|  \__,_|\___\___|
#                           |_|                                                                                
#
# GiD + OpenSees Interface - An Integrated FEA Platform
# Copyright (C) 2016-2020
#
# Lab of R/C and Masonry Structures
# School of Civil Engineering, AUTh
#
# Development Team
#
# T. Kartalis-Kaounis, Dipl. Eng. AUTh, MSc
# V.K. Papanikolaou, Dipl. Eng., MSc DIC, PhD, Asst. Prof. AUTh
#
# Project Contributors
#
# F. Derveni, Dipl. Eng. AUTh
# V.K. Protopapadakis, Dipl. Eng. AUTh, MSc
# T. Papadopoulos, Dipl. Eng. AUTh, MSc
# T. Zachariadis, Dipl. Eng. AUTh, MSc
#
# This program is free software: you can redistribute it and/or modify
# it under the terms of the GNU General Public License as published by
# the Free Software Foundation, either version 3 of the License, or
# (at your option) any later version.
#
# This program is distributed in the hope that it will be useful,
# but WITHOUT ANY WARRANTY; without even the implied warranty of
# MERCHANTABILITY or FITNESS FOR A PARTICULAR PURPOSE.  See the
# GNU General Public License for more details.
#
# You should have received a copy of the GNU General Public License
# along with this program.  If not, see <http://www.gnu.org/licenses/>.

# --------------------------------------------------------------------------------------------------------------
# U N I T S
# --------------------------------------------------------------------------------------------------------------

# Length : m
# Force  : N
# Moment : Nm
# Stress : Pa
# Mass   : kg

# --------------------------------------------------------------------------------------------------------------
# M A T E R I A L S / S E C T I O N S ( E L E M E N T S )
# --------------------------------------------------------------------------------------------------------------

# Panel1 (224)
# Panel2 (160)
# Panel3 (320)
# Panel4 (196)
# FloorBeams (176)
# ColumnsBelow (96)

# --------------------------------------------------------------------------------------------------------------
#
# M O D E L  D O M A I N  6DOF  (6)
#
# --------------------------------------------------------------------------------------------------------------

model BasicBuilder -ndm 3 -ndf 6

# --------------------------------------------------------------------------------------------------------------
# N O D E S
# --------------------------------------------------------------------------------------------------------------

# node $NodeTag $XCoord $Ycoord $Zcoord

node      1         13.5         13.5            0
node      2         13.5         13.5          0.5
node      3         13.5         13.5            1
node      4         13.5         13.5          1.5
node      5         13.5         13.5            2
node      6         13.5         13.5          2.5
node      7         13.5         13.5            3
node      8         13.5       12.925            3
node      9       12.925         13.5            3
node     10         13.5         13.5        3.185
node     11         13.5        12.35            3
node     12        12.35         13.5            3
node     13       12.925         13.5        3.185
node     14         13.5       12.925        3.185
node     15       12.925       12.925        3.185
node     16         13.5        12.35        3.185
node     17        12.35         13.5        3.185
node     18       12.925        12.35        3.185
node     19        12.35       12.925        3.185
node     20      11.6167         13.5            3
# ... 1205 like lines cut

# --------------------------------------------------------------------------------------------------------------
# R E S T R A I N T S
# --------------------------------------------------------------------------------------------------------------

# fix $NodeTag x-transl y-transl z-transl x-rot y-rot z-rot

fix      1   1   1   1   1   1   1
fix     40   1   1   1   1   1   1
fix     41   1   1   1   1   1   1
fix    128   1   1   1   1   1   1
fix    366   1   1   1   1   1   1
fix    367   1   1   1   1   1   1
fix    516   1   1   1   1   1   1
fix    517   1   1   1   1   1   1
fix    830   1   1   1   1   1   1
fix    914   1   1   1   1   1   1
fix    915   1   1   1   1   1   1
fix   1003   1   1   1   1   1   1
fix   1004   1   1   1   1   1   1
fix   1153   1   1   1   1   1   1
fix   1154   1   1   1   1   1   1
fix   1218   1   1   1   1   1   1

# --------------------------------------------------------------------------------------------------------------
# R I G I D  L I N K  C O N S T R A I N T S
# --------------------------------------------------------------------------------------------------------------

# Rigid link Constraint/rigidLink Definition : rigidLink $type $MasterNodeTag $SlaveNodeTag

rigidLink beam     85     82; # ID : 28
rigidLink beam     86     81; # ID : 14
rigidLink beam    134    127; # ID : 13
rigidLink beam    135    126; # ID : 27
rigidLink beam    184    179; # ID : 31
rigidLink beam    249    243; # ID : 26
rigidLink beam    250    242; # ID : 12
rigidLink beam    335    326; # ID : 11
rigidLink beam    336    325; # ID : 25
rigidLink beam    459    443; # ID : 10
rigidLink beam    460    444; # ID : 24
rigidLink beam    465    452; # ID : 7
rigidLink beam    466    451; # ID : 21
rigidLink beam    537    515; # ID : 20
rigidLink beam    538    514; # ID : 6
rigidLink beam    590    587; # ID : 30
rigidLink beam    591    586; # ID : 32
rigidLink beam    659    653; # ID : 5
rigidLink beam    660    654; # ID : 19
rigidLink beam    713    709; # ID : 9
# ... 12 like lines cut

# --------------------------------------------------------------------------------------------------------------
# D I S P L A C E M E N T - B A S E D   B E A M - C O L U M N   E L E M E N T S
# --------------------------------------------------------------------------------------------------------------

# Geometric Transformation

geomTransf Linear       1 -1 0 0; # vertical
geomTransf Linear       2  0 0 1; # non-vertical
geomTransf PDelta       3 -1 0 0; # vertical
geomTransf PDelta       4  0 0 1; # non-vertical
geomTransf Corotational 5 -1 0 0; # vertical
geomTransf Corotational 6  0 0 1; # non-vertical

# Sections Definition used by dispBeamColumn Elements
# (if they have not already been defined on this model domain)

uniaxialMaterial Steel01Thermal 660 3.45e+08 2.06e+11 0.15 0 1 0 1
section fiberSecThermal 661 -GJ 6.60257e+09  {
# patch rect $matTag $numSubdivIJ $numSubdivJK $yI $zI $yJ $zJ $yK $zK $yL $zL
patch quad    660      1      6  -0.003000  -0.116000   0.003000  -0.116000   0.003000   0.116000  -0.003000   0.116000
patch quad    660      4      3  -0.062500   0.116000   0.062500   0.116000   0.062500   0.125000  -0.062500   0.125000
patch quad    660      4      3  -0.062500  -0.125000   0.062500  -0.125000   0.062500  -0.116000  -0.062500  -0.116000
}

section fiberSecThermal 662 -GJ 5.28207e+09  {
# patch rect $matTag $numSubdivIJ $numSubdivJK $yI $zI $yJ $zJ $yK $zK $yL $zL
patch quad    660      1      6  -0.004000  -0.088000   0.004000  -0.088000   0.004000   0.088000  -0.004000   0.088000
patch quad    660      4      3  -0.100000   0.088000   0.100000   0.088000   0.100000   0.100000  -0.100000   0.100000
patch quad    660      4      3  -0.100000  -0.100000   0.100000  -0.100000   0.100000  -0.088000  -0.100000  -0.088000
}


# Displacement-Based Beam Column Element Definition

# element dispBeamColumnThermal $eleTag $iNode $jNode $numIntgrPts $secTag $transfTag <-mass $massDens>

element dispBeamColumnThermal    901   1218   1219  3    662  5   -mass  48.7328
element dispBeamColumnThermal    902   1219   1220  3    662  5   -mass  48.7328
element dispBeamColumnThermal    903   1220   1221  3    662  5   -mass  48.7328
element dispBeamColumnThermal    904   1221   1222  3    662  5   -mass  48.7328
element dispBeamColumnThermal    905   1222   1223  3    662  5   -mass  48.7328
element dispBeamColumnThermal    906   1223   1224  3    662  5   -mass  48.7328
element dispBeamColumnThermal    907    915    917  3    662  5   -mass  48.7328
element dispBeamColumnThermal    908    917    922  3    662  5   -mass  48.7328
element dispBeamColumnThermal    909    922    931  3    662  5   -mass  48.7328
element dispBeamColumnThermal    910    931    937  3    662  5   -mass  48.7328
element dispBeamColumnThermal    911    937    944  3    662  5   -mass  48.7328
element dispBeamColumnThermal    912    944    953  3    662  5   -mass  48.7328
element dispBeamColumnThermal    913      1      2  3    662  5   -mass  48.7328
element dispBeamColumnThermal    914      2      3  3    662  5   -mass  48.7328
element dispBeamColumnThermal    915      3      4  3    662  5   -mass  48.7328
element dispBeamColumnThermal    916      4      5  3    662  5   -mass  48.7328
element dispBeamColumnThermal    917      5      6  3    662  5   -mass  48.7328
element dispBeamColumnThermal    918      6      7  3    662  5   -mass  48.7328
element dispBeamColumnThermal    919    914    916  3    662  5   -mass  48.7328
element dispBeamColumnThermal    920    916    923  3    662  5   -mass  48.7328
# ... 252 like lines cut

# --------------------------------------------------------------------------------------------------------------
# S H E L L D K G Q  E L E M E N T S
# --------------------------------------------------------------------------------------------------------------

# Materials/Sections Definition used by shellDKGQ elements
# (if not already defined on this model domain)

# Panel1no8-200
uniaxialMaterial Steel01Thermal 663 4.26e+08 2e+11 0.15 0 1 0 1
nDMaterial PlateRebarThermal    401    663  90
nDMaterial PlateRebarThermal    501  663  0
uniaxialMaterial Steel01Thermal 611 4e+08 2e+11 0.015 0 1 0 1
nDMaterial PlateRebarThermal    551    611      0
#nDMaterial  CDPPlaneStressThermal matTag Ec  v  ft  fc  gt  gc
nDMaterial CDPPlaneStressThermal      201 2.535e+10 0.2 3.4e+06 3.38e+07 570.02 112667
nDMaterial PlateFromPlaneStressThermal    301    201   1.25e+10
# section LayeredShellThermal $sectionTag $nLayers $matTag1 $thickness_1 ... $matTagn $thickness_n
section LayeredShellThermal 664 10 301 0.015 501 0.000402124 401 0.000402124 301 0.0221733 301 0.0221733 301 0.0221733 301 0.0221733 501 0.000251327 401 0.000251327 301 0.015 
# Panel2no8-125
nDMaterial PlateRebarThermal    402    663  90
nDMaterial PlateRebarThermal    502  663  0
nDMaterial PlateRebarThermal    552    611      0
#nDMaterial  CDPPlaneStressThermal matTag Ec  v  ft  fc  gt  gc
nDMaterial CDPPlaneStressThermal      202 2.535e+10 0.2 3.4e+06 3.38e+07 570.02 112667
nDMaterial PlateFromPlaneStressThermal    303    202   1.25e+10
# section LayeredShellThermal $sectionTag $nLayers $matTag1 $thickness_1 ... $matTagn $thickness_n
section LayeredShellThermal 665 10 303 0.015 502 0.000402124 402 0.000402124 303 0.0220979 303 0.0220979 303 0.0220979 303 0.0220979 502 0.000402124 402 0.000402124 303 0.015 
# Panel3no8-150
nDMaterial PlateRebarThermal    403    663  90
nDMaterial PlateRebarThermal    503  663  0
nDMaterial PlateRebarThermal    553    611      0
#nDMaterial  CDPPlaneStressThermal matTag Ec  v  ft  fc  gt  gc
nDMaterial CDPPlaneStressThermal      203 2.535e+10 0.2 3.4e+06 3.38e+07 570.02 112667
nDMaterial PlateFromPlaneStressThermal    305    203   1.25e+10
# section LayeredShellThermal $sectionTag $nLayers $matTag1 $thickness_1 ... $matTagn $thickness_n
section LayeredShellThermal 666 10 305 0.015 503 0.000402124 403 0.000402124 305 0.0221314 305 0.0221314 305 0.0221314 305 0.0221314 503 0.000335103 403 0.000335103 305 0.015 
# Pannel4noTop
nDMaterial PlateRebarThermal    404    663  90
nDMaterial PlateRebarThermal    504  663  0
nDMaterial PlateRebarThermal    554    611      0
#nDMaterial  CDPPlaneStressThermal matTag Ec  v  ft  fc  gt  gc
nDMaterial CDPPlaneStressThermal      204 2.535e+10 0.2 3.4e+06 3.38e+07 570.02 112667
nDMaterial PlateFromPlaneStressThermal    307    204   1.25e+10
# section LayeredShellThermal $sectionTag $nLayers $matTag1 $thickness_1 ... $matTagn $thickness_n
section LayeredShellThermal 670 8 307 0.015 504 0.000402124 404 0.000402124 307 0.0222989 307 0.0222989 307 0.0222989 307 0.0222989 307 0.015 

# ShellDKGQ Elements Definition: element ShellDKGQ $eleTag $iNode $jNode $kNode $lNode $secTag

element ShellNLDKGQThermal      1   1217   1211   1216   1225 664; #  Panel1no8-200 
element ShellNLDKGQThermal      2   1212   1208   1211   1217 664; #  Panel1no8-200 
element ShellNLDKGQThermal      3   1211   1207   1213   1216 664; #  Panel1no8-200 
element ShellNLDKGQThermal      4   1208   1202   1207   1211 664; #  Panel1no8-200 
element ShellNLDKGQThermal      5   1206   1200   1208   1212 664; #  Panel1no8-200 
element ShellNLDKGQThermal      6   1199   1193   1200   1206 664; #  Panel1no8-200 
element ShellNLDKGQThermal      7   1190   1180   1193   1199 664; #  Panel1no8-200 
element ShellNLDKGQThermal      8   1200   1194   1202   1208 664; #  Panel1no8-200 
element ShellNLDKGQThermal      9   1193   1182   1194   1200 664; #  Panel1no8-200 
element ShellNLDKGQThermal     10   1180   1165   1182   1193 664; #  Panel1no8-200 
element ShellNLDKGQThermal     11   1187   1172   1180   1190 664; #  Panel1no8-200 
element ShellNLDKGQThermal     12   1177   1148   1172   1187 664; #  Panel1no8-200 
element ShellNLDKGQThermal     13   1172   1143   1165   1180 664; #  Panel1no8-200 
element ShellNLDKGQThermal     14   1148   1124   1143   1172 664; #  Panel1no8-200 
element ShellNLDKGQThermal     15   1087   1109   1143   1124 665; #  Panel2no8-125 
element ShellNLDKGQThermal     16   1041   1071   1109   1087 665; #  Panel2no8-125 
element ShellNLDKGQThermal     17    971   1019   1071   1041 665; #  Panel2no8-125 
element ShellNLDKGQThermal     18   1109   1132   1165   1143 665; #  Panel2no8-125 
element ShellNLDKGQThermal     19   1071   1100   1132   1109 665; #  Panel2no8-125 
element ShellNLDKGQThermal     20   1019   1061   1100   1071 665; #  Panel2no8-125 
element ShellNLDKGQThermal     21   1194   1179   1195   1202 670; #  Pannel4noTop 
element ShellNLDKGQThermal     22   1182   1160   1179   1194 670; #  Pannel4noTop 
element ShellNLDKGQThermal     23   1165   1132   1160   1182 670; #  Pannel4noTop 
element ShellNLDKGQThermal     24   1179   1159   1183   1195 670; #  Pannel4noTop 
element ShellNLDKGQThermal     25   1160   1130   1159   1179 670; #  Pannel4noTop 
element ShellNLDKGQThermal     26   1132   1100   1130   1160 670; #  Pannel4noTop 
element ShellNLDKGQThermal     27   1159   1131   1166   1183 670; #  Pannel4noTop 
element ShellNLDKGQThermal     28   1130   1101   1131   1159 670; #  Pannel4noTop 
element ShellNLDKGQThermal     29   1100   1061   1101   1130 670; #  Pannel4noTop 
element ShellNLDKGQThermal     30   1207   1201   1205   1213 664; #  Panel1no8-200 
element ShellNLDKGQThermal     31   1202   1195   1201   1207 664; #  Panel1no8-200 
element ShellNLDKGQThermal     32   1201   1192   1198   1205 664; #  Panel1no8-200 
element ShellNLDKGQThermal     33   1195   1183   1192   1201 664; #  Panel1no8-200 
element ShellNLDKGQThermal     34   1192   1181   1191   1198 664; #  Panel1no8-200 
element ShellNLDKGQThermal     35   1183   1166   1181   1192 664; #  Panel1no8-200 
element ShellNLDKGQThermal     36   1181   1171   1186   1191 664; #  Panel1no8-200 
element ShellNLDKGQThermal     37   1166   1144   1171   1181 664; #  Panel1no8-200 
element ShellNLDKGQThermal     38   1171   1147   1178   1186 664; #  Panel1no8-200 
element ShellNLDKGQThermal     39   1144   1125   1147   1171 664; #  Panel1no8-200 
element ShellNLDKGQThermal     40   1144   1108   1086   1125 665; #  Panel2no8-125 
element ShellNLDKGQThermal     41   1166   1131   1108   1144 665; #  Panel2no8-125 
element ShellNLDKGQThermal     42   1108   1070   1042   1086 665; #  Panel2no8-125 
element ShellNLDKGQThermal     43   1131   1101   1070   1108 665; #  Panel2no8-125 
element ShellNLDKGQThermal     44   1070   1020    972   1042 665; #  Panel2no8-125 
element ShellNLDKGQThermal     45   1101   1061   1020   1070 665; #  Panel2no8-125 
element ShellNLDKGQThermal     46   1020    968    918    972 665; #  Panel2no8-125 
element ShellNLDKGQThermal     47   1061   1019    968   1020 665; #  Panel2no8-125 
element ShellNLDKGQThermal     48    968    919    875    918 665; #  Panel2no8-125 
element ShellNLDKGQThermal     49   1019    971    919    968 665; #  Panel2no8-125 
# ... 76 like lines cut
element ShellNLDKGQThermal    126    809    797    867    881 670; #  Pannel4noTop 
element ShellNLDKGQThermal    127    742    722    797    809 670; #  Pannel4noTop 
element ShellNLDKGQThermal    128    663    644    722    742 670; #  Pannel4noTop 
element ShellNLDKGQThermal    129    797    785    853    867 670; #  Pannel4noTop 
element ShellNLDKGQThermal    130    722    707    785    797 670; #  Pannel4noTop 
element ShellNLDKGQThermal    131    644    625    707    722 670; #  Pannel4noTop 
element ShellNLDKGQThermal    132    785    771    845    853 670; #  Pannel4noTop 
element ShellNLDKGQThermal    133    707    699    771    785 670; #  Pannel4noTop 
element ShellNLDKGQThermal    134    625    614    699    707 670; #  Pannel4noTop 
element ShellNLDKGQThermal    135    942    926    994   1014 664; #  Panel1no8-200 
element ShellNLDKGQThermal    136    881    867    926    942 664; #  Panel1no8-200 
element ShellNLDKGQThermal    137    926    906    981    994 664; #  Panel1no8-200 
element ShellNLDKGQThermal    138    867    853    906    926 664; #  Panel1no8-200 
element ShellNLDKGQThermal    139    906    901    969    981 664; #  Panel1no8-200 
element ShellNLDKGQThermal    140    853    845    901    906 664; #  Panel1no8-200 
element ShellNLDKGQThermal    141    901    892    964    969 664; #  Panel1no8-200 
element ShellNLDKGQThermal    142    845    839    892    901 664; #  Panel1no8-200 
element ShellNLDKGQThermal    143    892    891    959    964 664; #  Panel1no8-200 
element ShellNLDKGQThermal    144    839    835    891    892 664; #  Panel1no8-200 
element ShellNLDKGQThermal    145    839    769    766    835 664; #  Panel1no8-200 
element ShellNLDKGQThermal    146    845    771    769    839 664; #  Panel1no8-200 
element ShellNLDKGQThermal    147    769    690    688    766 664; #  Panel1no8-200 
element ShellNLDKGQThermal    148    771    699    690    769 664; #  Panel1no8-200 
element ShellNLDKGQThermal    149    690    607    603    688 664; #  Panel1no8-200 
element ShellNLDKGQThermal    150    699    614    607    690 664; #  Panel1no8-200 
element ShellNLDKGQThermal    151    607    531    525    603 664; #  Panel1no8-200 
element ShellNLDKGQThermal    152    614    541    531    607 664; #  Panel1no8-200 
element ShellNLDKGQThermal    153    531    453    447    525 664; #  Panel1no8-200 
element ShellNLDKGQThermal    154    541    465    453    531 664; #  Panel1no8-200 
# ... 196 like lines cut
element ShellNLDKGQThermal    351    866    796    810    880 670; #  Pannel4noTop 
element ShellNLDKGQThermal    352    854    784    796    866 670; #  Pannel4noTop 
element ShellNLDKGQThermal    353    846    770    784    854 670; #  Pannel4noTop 
element ShellNLDKGQThermal    354    796    721    741    810 670; #  Pannel4noTop 
element ShellNLDKGQThermal    355    784    706    721    796 670; #  Pannel4noTop 
element ShellNLDKGQThermal    356    770    698    706    784 670; #  Pannel4noTop 
element ShellNLDKGQThermal    357    721    643    664    741 670; #  Pannel4noTop 
element ShellNLDKGQThermal    358    706    624    643    721 670; #  Pannel4noTop 
element ShellNLDKGQThermal    359    698    615    624    706 670; #  Pannel4noTop 
element ShellNLDKGQThermal    360    896    821    850    921 665; #  Panel2no8-125 
element ShellNLDKGQThermal    361    880    810    821    896 665; #  Panel2no8-125 
element ShellNLDKGQThermal    362    821    759    787    850 665; #  Panel2no8-125 
element ShellNLDKGQThermal    363    810    741    759    821 665; #  Panel2no8-125 
element ShellNLDKGQThermal    364    759    686    713    787 665; #  Panel2no8-125 
element ShellNLDKGQThermal    365    741    664    686    759 665; #  Panel2no8-125 
element ShellNLDKGQThermal    366    686    629    656    713 665; #  Panel2no8-125 
element ShellNLDKGQThermal    367    664    599    629    686 665; #  Panel2no8-125 
element ShellNLDKGQThermal    368    629    566    590    656 665; #  Panel2no8-125 
element ShellNLDKGQThermal    369    599    537    566    629 665; #  Panel2no8-125 
element ShellNLDKGQThermal    370    599    575    497    537 665; #  Panel2no8-125 
element ShellNLDKGQThermal    371    664    643    575    599 665; #  Panel2no8-125 
element ShellNLDKGQThermal    372    575    553    478    497 665; #  Panel2no8-125 
element ShellNLDKGQThermal    373    643    624    553    575 665; #  Panel2no8-125 
element ShellNLDKGQThermal    374    553    542    466    478 665; #  Panel2no8-125 
element ShellNLDKGQThermal    375    624    615    542    553 665; #  Panel2no8-125 
element ShellNLDKGQThermal    376    542    532    454    466 664; #  Panel1no8-200 
element ShellNLDKGQThermal    377    615    606    532    542 664; #  Panel1no8-200 
element ShellNLDKGQThermal    378    532    524    448    454 664; #  Panel1no8-200 
element ShellNLDKGQThermal    379    606    602    524    532 664; #  Panel1no8-200 
# ... 76 like lines cut
element ShellNLDKGQThermal    456     72     56     71     89 670; #  Pannel4noTop 
element ShellNLDKGQThermal    457     62     45     56     72 670; #  Pannel4noTop 
element ShellNLDKGQThermal    458     54     36     45     62 670; #  Pannel4noTop 
element ShellNLDKGQThermal    459     56     44     61     71 670; #  Pannel4noTop 
element ShellNLDKGQThermal    460     45     33     44     56 670; #  Pannel4noTop 
element ShellNLDKGQThermal    461     36     27     33     45 670; #  Pannel4noTop 
element ShellNLDKGQThermal    462     44     37     55     61 670; #  Pannel4noTop 
element ShellNLDKGQThermal    463     33     28     37     44 670; #  Pannel4noTop 
element ShellNLDKGQThermal    464     27     22     28     33 670; #  Pannel4noTop 
element ShellNLDKGQThermal    465    110     88    114    134 665; #  Panel2no8-125 
element ShellNLDKGQThermal    466     89     71     88    110 665; #  Panel2no8-125 
element ShellNLDKGQThermal    467     88     74     97    114 665; #  Panel2no8-125 
element ShellNLDKGQThermal    468     71     61     74     88 665; #  Panel2no8-125 
element ShellNLDKGQThermal    469     74     69     86     97 665; #  Panel2no8-125 
element ShellNLDKGQThermal    470     61     55     69     74 665; #  Panel2no8-125 
element ShellNLDKGQThermal    471     69     66     84     86 664; #  Panel1no8-200 
element ShellNLDKGQThermal    472     55     50     66     69 664; #  Panel1no8-200 
element ShellNLDKGQThermal    473     66     63     80     84 664; #  Panel1no8-200 
element ShellNLDKGQThermal    474     50     49     63     66 664; #  Panel1no8-200 
element ShellNLDKGQThermal    475     50     34     31     49 664; #  Panel1no8-200 
element ShellNLDKGQThermal    476     55     37     34     50 664; #  Panel1no8-200 
element ShellNLDKGQThermal    477     34     25     24     31 664; #  Panel1no8-200 
element ShellNLDKGQThermal    478     37     28     25     34 664; #  Panel1no8-200 
element ShellNLDKGQThermal    479     25     19     17     24 664; #  Panel1no8-200 
element ShellNLDKGQThermal    480     28     22     19     25 664; #  Panel1no8-200 
element ShellNLDKGQThermal    481     19     15     13     17 664; #  Panel1no8-200 
element ShellNLDKGQThermal    482     22     18     15     19 664; #  Panel1no8-200 
element ShellNLDKGQThermal    483     15     14     10     13 664; #  Panel1no8-200 
element ShellNLDKGQThermal    484     18     16     14     15 664; #  Panel1no8-200 
# ... 16 like lines cut
element ShellNLDKGQThermal    501    823    843    781    764 670; #  Pannel4noTop 
element ShellNLDKGQThermal    502    889    905    843    823 670; #  Pannel4noTop 
element ShellNLDKGQThermal    503    973    987    905    889 670; #  Pannel4noTop 
element ShellNLDKGQThermal    504    843    859    795    781 670; #  Pannel4noTop 
element ShellNLDKGQThermal    505    905    925    859    843 670; #  Pannel4noTop 
element ShellNLDKGQThermal    506    987    999    925    905 670; #  Pannel4noTop 
element ShellNLDKGQThermal    507    859    871    807    795 670; #  Pannel4noTop 
element ShellNLDKGQThermal    508    925    938    871    859 670; #  Pannel4noTop 
element ShellNLDKGQThermal    509    999   1022    938    925 670; #  Pannel4noTop 
element ShellNLDKGQThermal    510    871    883    817    807 670; #  Pannel4noTop 
element ShellNLDKGQThermal    511    938    951    883    871 670; #  Pannel4noTop 
element ShellNLDKGQThermal    512   1022   1036    951    938 670; #  Pannel4noTop 
element ShellNLDKGQThermal    513   1029   1005   1068   1081 670; #  Pannel4noTop 
element ShellNLDKGQThermal    514    948    935   1005   1029 670; #  Pannel4noTop 
element ShellNLDKGQThermal    515    884    868    935    948 670; #  Pannel4noTop 
element ShellNLDKGQThermal    516   1005    992   1060   1068 670; #  Pannel4noTop 
element ShellNLDKGQThermal    517    935    913    992   1005 670; #  Pannel4noTop 
element ShellNLDKGQThermal    518    868    855    913    935 670; #  Pannel4noTop 
element ShellNLDKGQThermal    519    992    976   1048   1060 670; #  Pannel4noTop 
element ShellNLDKGQThermal    520    913    898    976    992 670; #  Pannel4noTop 
# ... 4 like lines cut
element ShellNLDKGQThermal    525    715    730    674    659 666; #  Panel3no8-150 
element ShellNLDKGQThermal    526    764    781    730    715 666; #  Panel3no8-150 
element ShellNLDKGQThermal    527    730    743    695    674 666; #  Panel3no8-150 
element ShellNLDKGQThermal    528    781    795    743    730 666; #  Panel3no8-150 
element ShellNLDKGQThermal    529    743    761    710    695 666; #  Panel3no8-150 
element ShellNLDKGQThermal    530    795    807    761    743 666; #  Panel3no8-150 
element ShellNLDKGQThermal    531    761    778    731    710 666; #  Panel3no8-150 
element ShellNLDKGQThermal    532    807    817    778    761 666; #  Panel3no8-150 
element ShellNLDKGQThermal    533    842    820    868    884 666; #  Panel3no8-150 
element ShellNLDKGQThermal    534    802    783    820    842 666; #  Panel3no8-150 
element ShellNLDKGQThermal    535    820    805    855    868 666; #  Panel3no8-150 
element ShellNLDKGQThermal    536    783    762    805    820 666; #  Panel3no8-150 
element ShellNLDKGQThermal    537    805    788    836    855 666; #  Panel3no8-150 
element ShellNLDKGQThermal    538    762    746    788    805 666; #  Panel3no8-150 
element ShellNLDKGQThermal    539    788    778    817    836 666; #  Panel3no8-150 
element ShellNLDKGQThermal    540    746    731    778    788 666; #  Panel3no8-150 
element ShellNLDKGQThermal    541    573    593    570    546 666; #  Panel3no8-150 
element ShellNLDKGQThermal    542    600    622    593    573 666; #  Panel3no8-150 
element ShellNLDKGQThermal    543    636    650    622    600 666; #  Panel3no8-150 
element ShellNLDKGQThermal    544    659    674    650    636 666; #  Panel3no8-150 
# ... 76 like lines cut
element ShellNLDKGQThermal    621    154    174    162    145 670; #  Pannel4noTop 
element ShellNLDKGQThermal    622    176    188    174    154 670; #  Pannel4noTop 
element ShellNLDKGQThermal    623    195    219    188    176 670; #  Pannel4noTop 
element ShellNLDKGQThermal    624    174    189    180    162 670; #  Pannel4noTop 
element ShellNLDKGQThermal    625    188    207    189    174 670; #  Pannel4noTop 
element ShellNLDKGQThermal    626    219    235    207    188 670; #  Pannel4noTop 
element ShellNLDKGQThermal    627    189    209    199    180 670; #  Pannel4noTop 
element ShellNLDKGQThermal    628    207    228    209    189 670; #  Pannel4noTop 
element ShellNLDKGQThermal    629    235    255    228    207 670; #  Pannel4noTop 
element ShellNLDKGQThermal    630    209    231    220    199 670; #  Pannel4noTop 
element ShellNLDKGQThermal    631    228    252    231    209 670; #  Pannel4noTop 
element ShellNLDKGQThermal    632    255    276    252    228 670; #  Pannel4noTop 
element ShellNLDKGQThermal    633    349    321    352    387 670; #  Pannel4noTop 
element ShellNLDKGQThermal    634    333    305    321    349 670; #  Pannel4noTop 
element ShellNLDKGQThermal    635    317    291    305    333 670; #  Pannel4noTop 
element ShellNLDKGQThermal    636    321    294    328    352 670; #  Pannel4noTop 
element ShellNLDKGQThermal    637    305    274    294    321 670; #  Pannel4noTop 
element ShellNLDKGQThermal    638    291    266    274    305 670; #  Pannel4noTop 
element ShellNLDKGQThermal    639    294    271    301    328 670; #  Pannel4noTop 
element ShellNLDKGQThermal    640    274    254    271    294 670; #  Pannel4noTop 
# ... 4 like lines cut
element ShellNLDKGQThermal    645    138    156    153    136 664; #  Panel1no8-200 
element ShellNLDKGQThermal    646    145    162    156    138 664; #  Panel1no8-200 
element ShellNLDKGQThermal    647    156    178    172    153 664; #  Panel1no8-200 
element ShellNLDKGQThermal    648    162    180    178    156 664; #  Panel1no8-200 
element ShellNLDKGQThermal    649    178    193    191    172 664; #  Panel1no8-200 
element ShellNLDKGQThermal    650    180    199    193    178 664; #  Panel1no8-200 
element ShellNLDKGQThermal    651    193    216    212    191 664; #  Panel1no8-200 
element ShellNLDKGQThermal    652    199    220    216    193 664; #  Panel1no8-200 
element ShellNLDKGQThermal    653    312    287    291    317 664; #  Panel1no8-200 
element ShellNLDKGQThermal    654    311    278    287    312 664; #  Panel1no8-200 
element ShellNLDKGQThermal    655    287    259    266    291 664; #  Panel1no8-200 
element ShellNLDKGQThermal    656    278    257    259    287 664; #  Panel1no8-200 
element ShellNLDKGQThermal    657    259    237    240    266 664; #  Panel1no8-200 
element ShellNLDKGQThermal    658    257    232    237    259 664; #  Panel1no8-200 
element ShellNLDKGQThermal    659    237    216    220    240 664; #  Panel1no8-200 
element ShellNLDKGQThermal    660    232    212    216    237 664; #  Panel1no8-200 
element ShellNLDKGQThermal    661    313    286    277    310 664; #  Panel1no8-200 
element ShellNLDKGQThermal    662    316    290    286    313 664; #  Panel1no8-200 
element ShellNLDKGQThermal    663    286    260    258    277 664; #  Panel1no8-200 
element ShellNLDKGQThermal    664    290    265    260    286 664; #  Panel1no8-200 
# ... 12 like lines cut
element ShellNLDKGQThermal    677    334    304    290    316 670; #  Pannel4noTop 
element ShellNLDKGQThermal    678    350    322    304    334 670; #  Pannel4noTop 
element ShellNLDKGQThermal    679    386    351    322    350 670; #  Pannel4noTop 
element ShellNLDKGQThermal    680    304    273    265    290 670; #  Pannel4noTop 
element ShellNLDKGQThermal    681    322    295    273    304 670; #  Pannel4noTop 
element ShellNLDKGQThermal    682    351    327    295    322 670; #  Pannel4noTop 
element ShellNLDKGQThermal    683    273    253    241    265 670; #  Pannel4noTop 
element ShellNLDKGQThermal    684    295    272    253    273 670; #  Pannel4noTop 
element ShellNLDKGQThermal    685    327    300    272    295 670; #  Pannel4noTop 
element ShellNLDKGQThermal    686    253    230    221    241 670; #  Pannel4noTop 
element ShellNLDKGQThermal    687    272    251    230    253 670; #  Pannel4noTop 
element ShellNLDKGQThermal    688    300    275    251    272 670; #  Pannel4noTop 
element ShellNLDKGQThermal    689    175    187    218    196 670; #  Pannel4noTop 
element ShellNLDKGQThermal    690    155    173    187    175 670; #  Pannel4noTop 
element ShellNLDKGQThermal    691    146    163    173    155 670; #  Pannel4noTop 
element ShellNLDKGQThermal    692    187    208    234    218 670; #  Pannel4noTop 
element ShellNLDKGQThermal    693    173    190    208    187 670; #  Pannel4noTop 
element ShellNLDKGQThermal    694    163    181    190    173 670; #  Pannel4noTop 
element ShellNLDKGQThermal    695    208    229    256    234 670; #  Pannel4noTop 
element ShellNLDKGQThermal    696    190    210    229    208 670; #  Pannel4noTop 
# ... 4 like lines cut
element ShellNLDKGQThermal    701    414    389    351    386 666; #  Panel3no8-150 
element ShellNLDKGQThermal    702    460    426    389    414 666; #  Panel3no8-150 
element ShellNLDKGQThermal    703    389    355    327    351 666; #  Panel3no8-150 
element ShellNLDKGQThermal    704    426    394    355    389 666; #  Panel3no8-150 
element ShellNLDKGQThermal    705    355    330    300    327 666; #  Panel3no8-150 
element ShellNLDKGQThermal    706    394    361    330    355 666; #  Panel3no8-150 
element ShellNLDKGQThermal    707    330    306    275    300 666; #  Panel3no8-150 
element ShellNLDKGQThermal    708    361    336    306    330 666; #  Panel3no8-150 
element ShellNLDKGQThermal    709    222    238    269    249 666; #  Panel3no8-150 
element ShellNLDKGQThermal    710    196    218    238    222 666; #  Panel3no8-150 
element ShellNLDKGQThermal    711    238    261    293    269 666; #  Panel3no8-150 
element ShellNLDKGQThermal    712    218    234    261    238 666; #  Panel3no8-150 
element ShellNLDKGQThermal    713    261    283    315    293 666; #  Panel3no8-150 
element ShellNLDKGQThermal    714    234    256    283    261 666; #  Panel3no8-150 
element ShellNLDKGQThermal    715    283    306    336    315 666; #  Panel3no8-150 
element ShellNLDKGQThermal    716    256    275    306    283 666; #  Panel3no8-150 
element ShellNLDKGQThermal    717    475    441    426    460 666; #  Panel3no8-150 
element ShellNLDKGQThermal    718    495    470    441    475 666; #  Panel3no8-150 
element ShellNLDKGQThermal    719    510    484    470    495 666; #  Panel3no8-150 
element ShellNLDKGQThermal    720    546    506    484    510 666; #  Panel3no8-150 
# ... 28 like lines cut
element ShellNLDKGQThermal    749    570    539    506    546 670; #  Pannel4noTop 
element ShellNLDKGQThermal    750    588    561    539    570 670; #  Pannel4noTop 
element ShellNLDKGQThermal    751    611    583    561    588 670; #  Pannel4noTop 
element ShellNLDKGQThermal    752    634    608    583    611 670; #  Pannel4noTop 
element ShellNLDKGQThermal    753    539    502    482    506 670; #  Pannel4noTop 
element ShellNLDKGQThermal    754    561    534    502    539 670; #  Pannel4noTop 
element ShellNLDKGQThermal    755    583    560    534    561 670; #  Pannel4noTop 
element ShellNLDKGQThermal    756    608    581    560    583 670; #  Pannel4noTop 
element ShellNLDKGQThermal    757    502    480    456    482 670; #  Pannel4noTop 
element ShellNLDKGQThermal    758    534    500    480    502 670; #  Pannel4noTop 
element ShellNLDKGQThermal    759    560    526    500    534 670; #  Pannel4noTop 
element ShellNLDKGQThermal    760    581    557    526    560 670; #  Pannel4noTop 
element ShellNLDKGQThermal    761    480    449    430    456 670; #  Pannel4noTop 
element ShellNLDKGQThermal    762    500    476    449    480 670; #  Pannel4noTop 
element ShellNLDKGQThermal    763    526    499    476    500 670; #  Pannel4noTop 
element ShellNLDKGQThermal    764    557    528    499    526 670; #  Pannel4noTop 
element ShellNLDKGQThermal    765    398    422    450    429 670; #  Pannel4noTop 
element ShellNLDKGQThermal    766    364    397    422    398 670; #  Pannel4noTop 
element ShellNLDKGQThermal    767    341    363    397    364 670; #  Pannel4noTop 
element ShellNLDKGQThermal    768    318    342    363    341 670; #  Pannel4noTop 
# ... 44 like lines cut
element ShellNLDKGQThermal    813    733    718    693    712 666; #  Panel3no8-150 
element ShellNLDKGQThermal    814    751    736    718    733 666; #  Panel3no8-150 
element ShellNLDKGQThermal    815    774    755    736    751 666; #  Panel3no8-150 
element ShellNLDKGQThermal    816    801    782    755    774 666; #  Panel3no8-150 
element ShellNLDKGQThermal    817    718    697    670    693 666; #  Panel3no8-150 
element ShellNLDKGQThermal    818    736    720    697    718 666; #  Panel3no8-150 
element ShellNLDKGQThermal    819    755    740    720    736 666; #  Panel3no8-150 
element ShellNLDKGQThermal    820    782    763    740    755 666; #  Panel3no8-150 
element ShellNLDKGQThermal    821    697    673    651    670 666; #  Panel3no8-150 
element ShellNLDKGQThermal    822    720    703    673    697 666; #  Panel3no8-150 
element ShellNLDKGQThermal    823    740    726    703    720 666; #  Panel3no8-150 
element ShellNLDKGQThermal    824    763    745    726    740 666; #  Panel3no8-150 
element ShellNLDKGQThermal    825    673    657    633    651 666; #  Panel3no8-150 
element ShellNLDKGQThermal    826    703    677    657    673 666; #  Panel3no8-150 
element ShellNLDKGQThermal    827    726    705    677    703 666; #  Panel3no8-150 
element ShellNLDKGQThermal    828    745    732    705    726 666; #  Panel3no8-150 
element ShellNLDKGQThermal    829    635    649    675    660 666; #  Panel3no8-150 
element ShellNLDKGQThermal    830    601    623    649    635 666; #  Panel3no8-150 
element ShellNLDKGQThermal    831    574    592    623    601 666; #  Panel3no8-150 
element ShellNLDKGQThermal    832    545    569    592    574 666; #  Panel3no8-150 
# ... 28 like lines cut
element ShellNLDKGQThermal    861    949    934    869    885 670; #  Pannel4noTop 
element ShellNLDKGQThermal    862   1030   1006    934    949 670; #  Pannel4noTop 
element ShellNLDKGQThermal    863   1080   1069   1006   1030 670; #  Pannel4noTop 
element ShellNLDKGQThermal    864    934    912    856    869 670; #  Pannel4noTop 
element ShellNLDKGQThermal    865   1006    991    912    934 670; #  Pannel4noTop 
element ShellNLDKGQThermal    866   1069   1059    991   1006 670; #  Pannel4noTop 
element ShellNLDKGQThermal    867    912    899    837    856 670; #  Pannel4noTop 
element ShellNLDKGQThermal    868    991    975    899    912 670; #  Pannel4noTop 
element ShellNLDKGQThermal    869   1059   1047    975    991 670; #  Pannel4noTop 
element ShellNLDKGQThermal    870    899    882    818    837 670; #  Pannel4noTop 
element ShellNLDKGQThermal    871    975    950    882    899 670; #  Pannel4noTop 
element ShellNLDKGQThermal    872   1047   1035    950    975 670; #  Pannel4noTop 
element ShellNLDKGQThermal    873    888    904    988    974 670; #  Pannel4noTop 
element ShellNLDKGQThermal    874    824    844    904    888 670; #  Pannel4noTop 
element ShellNLDKGQThermal    875    765    780    844    824 670; #  Pannel4noTop 
element ShellNLDKGQThermal    876    904    924   1000    988 670; #  Pannel4noTop 
element ShellNLDKGQThermal    877    844    860    924    904 670; #  Pannel4noTop 
element ShellNLDKGQThermal    878    780    794    860    844 670; #  Pannel4noTop 
element ShellNLDKGQThermal    879    924    939   1021   1000 670; #  Pannel4noTop 
element ShellNLDKGQThermal    880    860    870    939    924 670; #  Pannel4noTop 
# ... 4 like lines cut
element ShellNLDKGQThermal    885   1117   1106   1069   1080 664; #  Panel1no8-200 
element ShellNLDKGQThermal    886   1141   1136   1106   1117 664; #  Panel1no8-200 
element ShellNLDKGQThermal    887   1106   1096   1059   1069 664; #  Panel1no8-200 
element ShellNLDKGQThermal    888   1136   1129   1096   1106 664; #  Panel1no8-200 
element ShellNLDKGQThermal    889   1096   1088   1047   1059 664; #  Panel1no8-200 
element ShellNLDKGQThermal    890   1129   1118   1088   1096 664; #  Panel1no8-200 
element ShellNLDKGQThermal    891   1088   1077   1035   1047 664; #  Panel1no8-200 
element ShellNLDKGQThermal    892   1118   1112   1077   1088 664; #  Panel1no8-200 
element ShellNLDKGQThermal    893   1040   1050   1091   1082 664; #  Panel1no8-200 
element ShellNLDKGQThermal    894    974    988   1050   1040 664; #  Panel1no8-200 
element ShellNLDKGQThermal    895   1050   1055   1099   1091 664; #  Panel1no8-200 
element ShellNLDKGQThermal    896    988   1000   1055   1050 664; #  Panel1no8-200 
element ShellNLDKGQThermal    897   1055   1067   1105   1099 664; #  Panel1no8-200 
element ShellNLDKGQThermal    898   1000   1021   1067   1055 664; #  Panel1no8-200 
element ShellNLDKGQThermal    899   1067   1077   1112   1105 664; #  Panel1no8-200 
element ShellNLDKGQThermal    900   1021   1035   1077   1067 664; #  Panel1no8-200 

# --------------------------------------------------------------------------------------------------------------
#
# D O M A I N  C O M M O N S
#
# --------------------------------------------------------------------------------------------------------------

# --------------------------------------------------------------------------------------------------------------
# E Q U A L  C O N S T R A I N T S
# --------------------------------------------------------------------------------------------------------------

# Equal Constraint/equalDOF Definition : equalDOF $MasterNode $SlaveNode $DOFs

equalDOF     10      7 1 2 3 4 5 6 ; # ID : 21
equalDOF     16     11 1 2 3 4 5 6 ; # ID : 22
equalDOF     17     12 1 2 3 4 5 6 ; # ID : 20
equalDOF     48     39 1 2 3 4 5 6 ; # ID : 23
equalDOF     49     38 1 2 3 4 5 6 ; # ID : 19
equalDOF     79     75 1 2 3 4 5 6 ; # ID : 24
equalDOF     80     76 1 2 3 4 5 6 ; # ID : 18
equalDOF    136    131 1 2 3 4 5 6 ; # ID : 25
equalDOF    137    130 1 2 3 4 5 6 ; # ID : 17
equalDOF    212    204 1 2 3 4 5 6 ; # ID : 26
equalDOF    213    203 1 2 3 4 5 6 ; # ID : 16
equalDOF    310    296 1 2 3 4 5 6 ; # ID : 15
equalDOF    311    297 1 2 3 4 5 6 ; # ID : 27
equalDOF    447    438 1 2 3 4 5 6 ; # ID : 14
equalDOF    448    437 1 2 3 4 5 6 ; # ID : 28
equalDOF    602    596 1 2 3 4 5 6 ; # ID : 29
equalDOF    603    597 1 2 3 4 5 6 ; # ID : 13
equalDOF    834    828 1 2 3 4 5 6 ; # ID : 31
equalDOF    835    827 1 2 3 4 5 6 ; # ID : 12
equalDOF    958    953 1 2 3 4 5 6 ; # ID : 32
# ... 20 like lines cut

# --------------------------------------------------------------------------------------------------------------
# R E C O R D E R S
# --------------------------------------------------------------------------------------------------------------

recorder Node -file Node_displacements.out -time -nodeRange 1 1225 -dof 1 2 3 disp

#source "../Scripts/Recorders.tcl"; # user recorders

logFile "YuliDong2.log"

puts ""
puts " __   __       __          __                   _       "
puts "/ _ .|  \\ _|_ /  \\ _  _ _ (_  _ _ _  | _ |_ _ _(_ _  _ _"
puts "\\__)||__/  |  \\__/|_)(-| )__)(-(-_)  || )|_(-| | (_|(_(-"
puts "                  |                                     "
puts "                                                  v2.8.0"
puts "Analysis summary"
puts ""
puts "Interval 1 : Static - [expr int(1+10)] steps"
puts "Interval 2 : Static - [expr int(1+150)] steps"
puts ""
puts "----------------"
puts ""
set time_start [clock seconds]
puts "Starting analysis at [clock format $time_start -format %H:%M:%S]\n"

# --------------------------------------------------------------------------------------------------------------
#
# I N T E R V A L   1
#
# --------------------------------------------------------------------------------------------------------------

puts "Running interval 1\n"
# Loads - Plain Pattern
pattern Plain 100 Linear {
    eleLoad -ele    901 -type -beamUniform        0        0     -478
    eleLoad -ele    902 -type -beamUniform        0        0     -478
    eleLoad -ele    903 -type -beamUniform        0        0     -478
    eleLoad -ele    904 -type -beamUniform        0        0     -478
    eleLoad -ele    905 -type -beamUniform        0        0     -478
    eleLoad -ele    906 -type -beamUniform        0        0     -478
    eleLoad -ele    907 -type -beamUniform        0        0     -478
    eleLoad -ele    908 -type -beamUniform        0        0     -478
    eleLoad -ele    909 -type -beamUniform        0        0     -478
    eleLoad -ele    910 -type -beamUniform        0        0     -478
    eleLoad -ele    911 -type -beamUniform        0        0     -478
    eleLoad -ele    912 -type -beamUniform        0        0     -478
    eleLoad -ele    913 -type -beamUniform        0        0     -478
    eleLoad -ele    914 -type -beamUniform        0        0     -478
    eleLoad -ele    915 -type -beamUniform        0        0     -478
    eleLoad -ele    916 -type -beamUniform        0        0     -478
    eleLoad -ele    917 -type -beamUniform        0        0     -478
    eleLoad -ele    918 -type -beamUniform        0        0     -478
    eleLoad -ele    919 -type -beamUniform        0        0     -478
    eleLoad -ele    920 -type -beamUniform        0        0     -478
# ... 76 like lines cut
    load   1217 0.0 0.0 -388.484 0.0 0.0 0.0
    load   1211 0.0 0.0 -388.484 0.0 0.0 0.0
    load   1216 0.0 0.0 -388.484 0.0 0.0 0.0
    load   1225 0.0 0.0 -388.484 0.0 0.0 0.0
    load   1212 0.0 0.0 -388.484 0.0 0.0 0.0
    load   1208 0.0 0.0 -388.484 0.0 0.0 0.0
    load   1211 0.0 0.0 -388.484 0.0 0.0 0.0
    load   1217 0.0 0.0 -388.484 0.0 0.0 0.0
    load   1211 0.0 0.0 -388.484 0.0 0.0 0.0
    load   1207 0.0 0.0 -388.484 0.0 0.0 0.0
    load   1213 0.0 0.0 -388.484 0.0 0.0 0.0
    load   1216 0.0 0.0 -388.484 0.0 0.0 0.0
    load   1208 0.0 0.0 -388.484 0.0 0.0 0.0
    load   1202 0.0 0.0 -388.484 0.0 0.0 0.0
    load   1207 0.0 0.0 -388.484 0.0 0.0 0.0
    load   1211 0.0 0.0 -388.484 0.0 0.0 0.0
    load   1206 0.0 0.0 -495.458 0.0 0.0 0.0
    load   1200 0.0 0.0 -495.458 0.0 0.0 0.0
    load   1208 0.0 0.0 -495.458 0.0 0.0 0.0
    load   1212 0.0 0.0 -495.458 0.0 0.0 0.0
# ... 3580 like lines cut
}

# recording the initial status

record

# Analysis options

system SparseSYM
numberer RCM
constraints Transformation
integrator LoadControl 0.1
test RelativeEnergyIncr 0.001 50 2
algorithm Newton
analysis Static

set Lincr 0.1
set Nsteps 10
set committedSteps 1
set LoadCounter 0

set strIni {}
variable testTypeStatic RelativeEnergyIncr
variable TolStatic 0.001
variable maxNumIterStatic 50
variable algorithmTypeStatic Newton

for {set i 1} { $i <= $Nsteps } {incr i 1} {
    set t [format "%7.5f" [expr [getTime] + $Lincr]]
    puts -nonewline "(1) $algorithmTypeStatic$strIni LF $t "
    set AnalOk [analyze 1]
    if {$AnalOk !=0} {
        break
    } else {
        set LoadCounter [expr $LoadCounter+1.0]
        set committedSteps [expr $committedSteps+1]
    }
}

if {$AnalOk != 0} {; # if analysis fails, alternative algorithms and substepping is applied
    set firstFail 1
    set AnalOk 0
    set Nk 1
    set returnToInitStepFlag 0
    while {$LoadCounter < $Nsteps && $AnalOk == 0} {
        if {($Nk==2 && $AnalOk==0) || ($Nk==1 && $AnalOk==0)} {
            set Nk 1
            if {$returnToInitStepFlag} {
                puts "\nBack to initial step\n"
                set returnToInitStepFlag 0
            }
            if {$firstFail == 0} { # for the first time only, do not repeat previous failed step
                integrator LoadControl $Lincr; # reset to original increment
                set t [format "%7.5f" [expr [getTime] + $Lincr]]
                puts -nonewline "(1) $algorithmTypeStatic$strIni LF $t "
                set AnalOk [analyze 1]; # zero for convergence
            } else {
                set AnalOk 1
                set firstFail 0
            }
            if {$AnalOk == 0} {
                set LoadCounter [expr $LoadCounter+1.0/$Nk]
                set committedSteps [expr $committedSteps+1]
            }
        }; # end if Nk=1
        # substepping /2
        if {($AnalOk !=0 && $Nk==1) || ($AnalOk==0 && $Nk==4)} {
            set Nk 2; # reduce step size
            set continueFlag 1
            puts "\nInitial step is divided by 2\n"
            set LincrReduced [expr $Lincr/$Nk]
            integrator LoadControl $LincrReduced
            for {set ik 1} {$ik <=$Nk} {incr ik 1} {
                if {$continueFlag==0} {
                    break
                }
                set t [format "%7.5f" [expr [getTime] + $LincrReduced]]
                puts -nonewline "(1) $algorithmTypeStatic$strIni LF $t "
                set AnalOk [analyze 1]; # zero for convergence
                if {$AnalOk == 0} {
                    set LoadCounter [expr $LoadCounter+1.0/$Nk]
                    set committedSteps [expr $committedSteps+1]
                } else {
                    set continueFlag 0
                }
            }
            if {$AnalOk == 0} {
                set returnToInitStepFlag 1
            }
        }; # end if Nk=2
        # substepping /4
        if {($AnalOk !=0 && $Nk==2) || ($AnalOk==0 && $Nk==8)} {
            set Nk 4; # reduce step size
            set continueFlag 1
            puts "\nInitial step is divided by 4\n"
            set LincrReduced [expr $Lincr/$Nk]
            integrator LoadControl $LincrReduced
            for {set ik 1} {$ik <=$Nk} {incr ik 1} {
                if {$continueFlag==0} {
                    break
                }
                set t [format "%7.5f" [expr [getTime] + $LincrReduced]]
                puts -nonewline "(1) $algorithmTypeStatic$strIni LF $t "
                set AnalOk [analyze 1]; # zero for convergence
                if {$AnalOk == 0} {
                    set LoadCounter [expr $LoadCounter+1.0/$Nk]
                    set committedSteps [expr $committedSteps+1]
                } else {
                    set continueFlag 0
                }
            }
            if {$AnalOk == 0} {
                set returnToInitStepFlag 1
            }
        }; # end if Nk=4
        # substepping /8
        if {$AnalOk !=0 && $Nk==4 || ($Nk == 16 && $AnalOk == 0)} {
            set Nk 8; # reduce step size
            set continueFlag 1
            puts "\nInitial step is divided by 8\n"
            set LincrReduced [expr $Lincr/$Nk]
            integrator LoadControl $LincrReduced
            for {set ik 1} {$ik <=$Nk} {incr ik 1} {
                if {$continueFlag==0} {
                    break
                }
                set t [format "%7.5f" [expr [getTime] + $LincrReduced]]
                puts -nonewline "(1) $algorithmTypeStatic$strIni LF $t "
                set AnalOk [analyze 1]; # zero for convergence
                if {$AnalOk == 0} {
                    set LoadCounter [expr $LoadCounter+1.0/$Nk]
                    set committedSteps [expr $committedSteps+1]
                } else {
                    set continueFlag 0
                }
            }
            if {$AnalOk == 0} {
                set returnToInitStepFlag 1
            }
        }; # end if Nk=8
        # substepping /16
        if {($Nk == 8 && $AnalOk!=0)} {
            set Nk 16; # reduce step size
            set continueFlag 1
            puts "\nInitial step is divided by 16\n"
            set LincrReduced [expr $Lincr/$Nk]
            integrator LoadControl $LincrReduced
            for {set ik 1} {$ik <=$Nk} {incr ik 1} {
                if {$continueFlag==0} {
                    break
                }
                set t [format "%7.5f" [expr [getTime] + $LincrReduced]]
                puts -nonewline "(1) $algorithmTypeStatic$strIni LF $t "
                set AnalOk [analyze 1]; # zero for convergence
                if {$AnalOk == 0} {
                    set LoadCounter [expr $LoadCounter+1.0/$Nk]
                    set committedSteps [expr $committedSteps+1]
                } else {
                    set continueFlag 0
                }
            }
            if {$AnalOk == 0} {
                set returnToInitStepFlag 1
            }
        }; # end if Nk=16
    }; # end while loop
}; # end if AnalOk

if {$AnalOk == 0} {
    puts "\nAnalysis completed SUCCESSFULLY"
    puts "Committed steps : $committedSteps\n"
} else {
    puts "\nAnalysis FAILED"
    puts "Committed steps : $committedSteps\n"
}

# all previously defined patterns are constant for so on.

loadConst -time 0.0

# --------------------------------------------------------------------------------------------------------------
#
# I N T E R V A L   2
#
# --------------------------------------------------------------------------------------------------------------

puts "Running interval 2\n"
# Loads - Plain Pattern
pattern Plain 200 Linear {
    eleLoad -ele    216 -type -shellThermal -source  "Records/slab.dat"  -0.06006  0.06006        
    eleLoad -ele    217 -type -shellThermal -source  "Records/slab.dat"  -0.06006  0.06006        
    eleLoad -ele    218 -type -shellThermal -source  "Records/slab.dat"  -0.06006  0.06006        
    eleLoad -ele    220 -type -shellThermal -source  "Records/slab.dat"  -0.06006  0.06006        
    eleLoad -ele    221 -type -shellThermal -source  "Records/slab.dat"  -0.06006  0.06006        
    eleLoad -ele    222 -type -shellThermal -source  "Records/slab.dat"  -0.06006  0.06006        
    eleLoad -ele    224 -type -shellThermal -source  "Records/slab.dat"  -0.06006  0.06006        
    eleLoad -ele    225 -type -shellThermal -source  "Records/slab.dat"  -0.06006  0.06006        
    eleLoad -ele    226 -type -shellThermal -source  "Records/slab.dat"  -0.06006  0.06006        
    eleLoad -ele    231 -type -shellThermal -source  "Records/slab.dat"  -0.06006  0.06006        
    eleLoad -ele    232 -type -shellThermal -source  "Records/slab.dat"  -0.06006  0.06006        
    eleLoad -ele    233 -type -shellThermal -source  "Records/slab.dat"  -0.06006  0.06006        
    eleLoad -ele    235 -type -shellThermal -source  "Records/slab.dat"  -0.06006  0.06006        
    eleLoad -ele    236 -type -shellThermal -source  "Records/slab.dat"  -0.06006  0.06006        
    eleLoad -ele    237 -type -shellThermal -source  "Records/slab.dat"  -0.06006  0.06006        
    eleLoad -ele    239 -type -shellThermal -source  "Records/slab.dat"  -0.06006  0.06006        
    eleLoad -ele    240 -type -shellThermal -source  "Records/slab.dat"  -0.06006  0.06006        
    eleLoad -ele    241 -type -shellThermal -source  "Records/slab.dat"  -0.06006  0.06006        
    eleLoad -ele    244 -type -shellThermal -source  "Records/slab.dat"  -0.06006  0.06006        
    eleLoad -ele    245 -type -shellThermal -source  "Records/slab.dat"  -0.06006  0.06006        
# ... 176 like lines cut
}

# recording the initial status

record

# Analysis options

system SparseSYM
numberer RCM
constraints Transformation
integrator LoadControl 2
test RelativeEnergyIncr 0.001 1000 2
algorithm ModifiedNewton
analysis Static

set Lincr 2
set Nsteps 150
set committedSteps 1
set LoadCounter 0

set strIni {}
variable testTypeStatic RelativeEnergyIncr
variable TolStatic 0.001
variable maxNumIterStatic 1000
variable algorithmTypeStatic ModifiedNewton

for {set i 1} { $i <= $Nsteps } {incr i 1} {
    set t [format "%7.5f" [expr [getTime] + $Lincr]]
    puts -nonewline "(2) $algorithmTypeStatic$strIni LF $t "
    set AnalOk [analyze 1]
    if {$AnalOk !=0} {
        break
    } else {
        set LoadCounter [expr $LoadCounter+1.0]
        set committedSteps [expr $committedSteps+1]
    }
}

if {$AnalOk != 0} {; # if analysis fails, alternative algorithms and substepping is applied
    set firstFail 1
    set AnalOk 0
    set Nk 1
    set returnToInitStepFlag 0
    while {$LoadCounter < $Nsteps && $AnalOk == 0} {
        if {($Nk==2 && $AnalOk==0) || ($Nk==1 && $AnalOk==0)} {
            set Nk 1
            if {$returnToInitStepFlag} {
                puts "\nBack to initial step\n"
                set returnToInitStepFlag 0
            }
            if {$firstFail == 0} { # for the first time only, do not repeat previous failed step
                integrator LoadControl $Lincr; # reset to original increment
                set t [format "%7.5f" [expr [getTime] + $Lincr]]
                puts -nonewline "(2) $algorithmTypeStatic$strIni LF $t "
                set AnalOk [analyze 1]; # zero for convergence
            } else {
                set AnalOk 1
                set firstFail 0
            }
            if {$AnalOk == 0} {
                set LoadCounter [expr $LoadCounter+1.0/$Nk]
                set committedSteps [expr $committedSteps+1]
            }
        }; # end if Nk=1
        # substepping /2
        if {($AnalOk !=0 && $Nk==1) || ($AnalOk==0 && $Nk==4)} {
            set Nk 2; # reduce step size
            set continueFlag 1
            puts "\nInitial step is divided by 2\n"
            set LincrReduced [expr $Lincr/$Nk]
            integrator LoadControl $LincrReduced
            for {set ik 1} {$ik <=$Nk} {incr ik 1} {
                if {$continueFlag==0} {
                    break
                }
                set t [format "%7.5f" [expr [getTime] + $LincrReduced]]
                puts -nonewline "(2) $algorithmTypeStatic$strIni LF $t "
                set AnalOk [analyze 1]; # zero for convergence
                if {$AnalOk == 0} {
                    set LoadCounter [expr $LoadCounter+1.0/$Nk]
                    set committedSteps [expr $committedSteps+1]
                } else {
                    set continueFlag 0
                }
            }
            if {$AnalOk == 0} {
                set returnToInitStepFlag 1
            }
        }; # end if Nk=2
        # substepping /4
        if {($AnalOk !=0 && $Nk==2) || ($AnalOk==0 && $Nk==8)} {
            set Nk 4; # reduce step size
            set continueFlag 1
            puts "\nInitial step is divided by 4\n"
            set LincrReduced [expr $Lincr/$Nk]
            integrator LoadControl $LincrReduced
            for {set ik 1} {$ik <=$Nk} {incr ik 1} {
                if {$continueFlag==0} {
                    break
                }
                set t [format "%7.5f" [expr [getTime] + $LincrReduced]]
                puts -nonewline "(2) $algorithmTypeStatic$strIni LF $t "
                set AnalOk [analyze 1]; # zero for convergence
                if {$AnalOk == 0} {
                    set LoadCounter [expr $LoadCounter+1.0/$Nk]
                    set committedSteps [expr $committedSteps+1]
                } else {
                    set continueFlag 0
                }
            }
            if {$AnalOk == 0} {
                set returnToInitStepFlag 1
            }
        }; # end if Nk=4
        # substepping /8
        if {$AnalOk !=0 && $Nk==4 || ($Nk == 16 && $AnalOk == 0)} {
            set Nk 8; # reduce step size
            set continueFlag 1
            puts "\nInitial step is divided by 8\n"
            set LincrReduced [expr $Lincr/$Nk]
            integrator LoadControl $LincrReduced
            for {set ik 1} {$ik <=$Nk} {incr ik 1} {
                if {$continueFlag==0} {
                    break
                }
                set t [format "%7.5f" [expr [getTime] + $LincrReduced]]
                puts -nonewline "(2) $algorithmTypeStatic$strIni LF $t "
                set AnalOk [analyze 1]; # zero for convergence
                if {$AnalOk == 0} {
                    set LoadCounter [expr $LoadCounter+1.0/$Nk]
                    set committedSteps [expr $committedSteps+1]
                } else {
                    set continueFlag 0
                }
            }
            if {$AnalOk == 0} {
                set returnToInitStepFlag 1
            }
        }; # end if Nk=8
        # substepping /16
        if {($Nk == 8 && $AnalOk!=0)} {
            set Nk 16; # reduce step size
            set continueFlag 1
            puts "\nInitial step is divided by 16\n"
            set LincrReduced [expr $Lincr/$Nk]
            integrator LoadControl $LincrReduced
            for {set ik 1} {$ik <=$Nk} {incr ik 1} {
                if {$continueFlag==0} {
                    break
                }
                set t [format "%7.5f" [expr [getTime] + $LincrReduced]]
                puts -nonewline "(2) $algorithmTypeStatic$strIni LF $t "
                set AnalOk [analyze 1]; # zero for convergence
                if {$AnalOk == 0} {
                    set LoadCounter [expr $LoadCounter+1.0/$Nk]
                    set committedSteps [expr $committedSteps+1]
                } else {
                    set continueFlag 0
                }
            }
            if {$AnalOk == 0} {
                set returnToInitStepFlag 1
            }
        }; # end if Nk=16
    }; # end while loop
}; # end if AnalOk

if {$AnalOk == 0} {
    puts "\nAnalysis completed SUCCESSFULLY"
    puts "Committed steps : $committedSteps\n"
} else {
    puts "\nAnalysis FAILED"
    puts "Committed steps : $committedSteps\n"
}

# all previously defined patterns are constant for so on.

loadConst -time 0.0

# --------------------------------------------------------------------------------------------------------------

set hour 0.0
set minute 0.0
set second 0.0
set time_end [clock seconds]
set analysisTime [expr $time_end-$time_start]

puts "Analysis finished at [clock format $time_end -format %H:%M:%S]\n"

if {$analysisTime<60} {
    if {$analysisTime==0} {
        puts "Analysis time : less than one second"
    } elseif {$analysisTime==1} {
        puts "Analysis time : 1 second"
    } else {
        puts "Analysis time : $analysisTime seconds"
    }

}  elseif {$analysisTime<3600} {
    set minutes [expr $analysisTime/60]
    set seconds [expr $analysisTime%60]

    if {$minutes==1} {
        puts -nonewline "Analysis time : 1 minute"
    } else {
        puts -nonewline "Analysis time : $minutes minutes"
    }

    if {$seconds==0} {
        puts ""
    } elseif {$seconds==1} {
        puts " and 1 second"
    } else {
        puts " and $seconds seconds"
    }

} else  {
    set hours [expr $analysisTime/3600]
    set minutes [expr ($analysisTime%3600)/60]
    set seconds [expr ($analysisTime%3600)%60]

    if {$hours==1} {
        puts -nonewline "Analysis time : 1 hour"
    } else {
        puts -nonewline "Analysis time : $hours hours"
    }

    if {$minutes==0} {
    } elseif {$minute==1} {
        puts -nonewline ", 1 minute"
    } else {
        puts -nonewline ", $minutes minutes"
    }

    if {$seconds==0} {
        puts ""
    } elseif {$second==1} {
        puts " and 1 second"
    } else {
        puts " and $seconds seconds"
    }
}

# --------------------------------------------------------------------------------------------------------------
#
# M E T A D A T A
#
# --------------------------------------------------------------------------------------------------------------

# Number of nodes
# 1225

# Elements 1D
# 272

# Elements 2D
# 0

# Elements 3D
# 0

# DispBeamColumn
# 272
# 901 902 903 904 905 906 907 908 909 910 911 912 913 914 915 916 917 918 919 920 921 922 923 924 925 926 927 928 929 930 931 932 933 934 935 936 937 938 939 940 941 942 943 944 945 946 947 948 949 950 951 952 953 954 955 956 957 958 959 960 961 962 963 964 965 966 967 968 969 970 971 972 973 974 975 976 977 978 979 980 981 982 983 984 985 986 987 988 989 990 991 992 993 994 995 996 997 998 999 10

# ShellDKGQ
# 900
# 1 2 3 4 5 6 7 8 9 10 11 12 13 14 15 16 17 18 19 20 21 22 23 24 25 26 27 28 29 30 31 32 33 34 35 36 37 38 39 40 41 42 43 44 45 46 47 48 49 50 51 52 53 54 55 56 57 58 59 60 61 62 63 64 65 66 67 68 69 70 71 72 73 74 75 76 77 78 79 80 81 82 83 84 85 86 87 88 89 90 91 92 93 94 95 96 97 98 99 100 101 102 103 104 105 106 107 108 109 110 111 112 113 114 115 116 117 118 119 120 121 122 123 124 125 126 12

# -------------------------------------------------------------------------------------------------------------------------------------------------------------------------
#
# F R A M E   L O C A L   A X E S   O R I E N T A T I O N
#
# -------------------------------------------------------------------------------------------------------------------------------------------------------------------------
#
#      ID                           Type                       Local-x                       Local-y                       Local-z          Literal      Material / Section
#
#     901                 dispBeamColumn     {+0.0000 +0.0000 +1.0000}     {+0.0000 +1.0000 -0.0000}     {-1.0000 +0.0000 +0.0000}     { +Z +Y -X };   # Columns
#     902                 dispBeamColumn     {+0.0000 +0.0000 +1.0000}     {+0.0000 +1.0000 -0.0000}     {-1.0000 +0.0000 +0.0000}     { +Z +Y -X };   # Columns
#     903                 dispBeamColumn     {+0.0000 +0.0000 +1.0000}     {+0.0000 +1.0000 -0.0000}     {-1.0000 +0.0000 +0.0000}     { +Z +Y -X };   # Columns
#     904                 dispBeamColumn     {+0.0000 +0.0000 +1.0000}     {+0.0000 +1.0000 -0.0000}     {-1.0000 +0.0000 +0.0000}     { +Z +Y -X };   # Columns
#     905                 dispBeamColumn     {+0.0000 +0.0000 +1.0000}     {+0.0000 +1.0000 -0.0000}     {-1.0000 +0.0000 +0.0000}     { +Z +Y -X };   # Columns
#     906                 dispBeamColumn     {+0.0000 +0.0000 +1.0000}     {+0.0000 +1.0000 -0.0000}     {-1.0000 +0.0000 +0.0000}     { +Z +Y -X };   # Columns
#     907                 dispBeamColumn     {+0.0000 +0.0000 +1.0000}     {+0.0000 +1.0000 -0.0000}     {-1.0000 +0.0000 +0.0000}     { +Z +Y -X };   # Columns
#     908                 dispBeamColumn     {+0.0000 +0.0000 +1.0000}     {+0.0000 +1.0000 -0.0000}     {-1.0000 +0.0000 +0.0000}     { +Z +Y -X };   # Columns
#     909                 dispBeamColumn     {+0.0000 +0.0000 +1.0000}     {+0.0000 +1.0000 -0.0000}     {-1.0000 +0.0000 +0.0000}     { +Z +Y -X };   # Columns
#     910                 dispBeamColumn     {+0.0000 +0.0000 +1.0000}     {+0.0000 +1.0000 -0.0000}     {-1.0000 +0.0000 +0.0000}     { +Z +Y -X };   # Columns
#     911                 dispBeamColumn     {+0.0000 +0.0000 +1.0000}     {+0.0000 +1.0000 -0.0000}     {-1.0000 +0.0000 +0.0000}     { +Z +Y -X };   # Columns
#     912                 dispBeamColumn     {+0.0000 +0.0000 +1.0000}     {+0.0000 +1.0000 -0.0000}     {-1.0000 +0.0000 +0.0000}     { +Z +Y -X };   # Columns
#     913                 dispBeamColumn     {+0.0000 +0.0000 +1.0000}     {+0.0000 +1.0000 -0.0000}     {-1.0000 +0.0000 +0.0000}     { +Z +Y -X };   # Columns
#     914                 dispBeamColumn     {+0.0000 +0.0000 +1.0000}     {+0.0000 +1.0000 -0.0000}     {-1.0000 +0.0000 +0.0000}     { +Z +Y -X };   # Columns
#     915                 dispBeamColumn     {+0.0000 +0.0000 +1.0000}     {+0.0000 +1.0000 -0.0000}     {-1.0000 +0.0000 +0.0000}     { +Z +Y -X };   # Columns
#     916                 dispBeamColumn     {+0.0000 +0.0000 +1.0000}     {+0.0000 +1.0000 -0.0000}     {-1.0000 +0.0000 +0.0000}     { +Z +Y -X };   # Columns
#     917                 dispBeamColumn     {+0.0000 +0.0000 +1.0000}     {+0.0000 +1.0000 -0.0000}     {-1.0000 +0.0000 +0.0000}     { +Z +Y -X };   # Columns
#     918                 dispBeamColumn     {+0.0000 +0.0000 +1.0000}     {+0.0000 +1.0000 -0.0000}     {-1.0000 +0.0000 +0.0000}     { +Z +Y -X };   # Columns
#     919                 dispBeamColumn     {+0.0000 +0.0000 +1.0000}     {+0.0000 +1.0000 -0.0000}     {-1.0000 +0.0000 +0.0000}     { +Z +Y -X };   # Columns
#     920                 dispBeamColumn     {+0.0000 +0.0000 +1.0000}     {+0.0000 +1.0000 -0.0000}     {-1.0000 +0.0000 +0.0000}     { +Z +Y -X };   # Columns
# ... 76 like lines cut
#     997                 dispBeamColumn     {+1.0000 +0.0000 +0.0000}     {+0.0000 +1.0000 +0.0000}     {+0.0000 +0.0000 +1.0000}     { +X +Y +Z };   # Beams
#     998                 dispBeamColumn     {+1.0000 +0.0000 +0.0000}     {+0.0000 +1.0000 +0.0000}     {+0.0000 +0.0000 +1.0000}     { +X +Y +Z };   # Beams
#     999                 dispBeamColumn     {+1.0000 +0.0000 +0.0000}     {+0.0000 +1.0000 +0.0000}     {+0.0000 +0.0000 +1.0000}     { +X +Y +Z };   # Beams
#    1000                 dispBeamColumn     {+1.0000 +0.0000 +0.0000}     {+0.0000 +1.0000 +0.0000}     {+0.0000 +0.0000 +1.0000}     { +X +Y +Z };   # Beams
#    1001                 dispBeamColumn     {+1.0000 +0.0000 +0.0000}     {+0.0000 +1.0000 +0.0000}     {+0.0000 +0.0000 +1.0000}     { +X +Y +Z };   # Beams
#    1002                 dispBeamColumn     {+1.0000 +0.0000 +0.0000}     {+0.0000 +1.0000 +0.0000}     {+0.0000 +0.0000 +1.0000}     { +X +Y +Z };   # Beams
#    1003                 dispBeamColumn     {+1.0000 +0.0000 +0.0000}     {+0.0000 +1.0000 +0.0000}     {+0.0000 +0.0000 +1.0000}     { +X +Y +Z };   # Beams
#    1004                 dispBeamColumn     {+0.0000 +1.0000 +0.0000}     {-1.0000 +0.0000 +0.0000}     {+0.0000 -0.0000 +1.0000}     { +Y -X +Z };   # Beams
#    1005                 dispBeamColumn     {+0.0000 +1.0000 +0.0000}     {-1.0000 +0.0000 +0.0000}     {+0.0000 -0.0000 +1.0000}     { +Y -X +Z };   # Beams
#    1006                 dispBeamColumn     {+0.0000 +1.0000 +0.0000}     {-1.0000 +0.0000 +0.0000}     {+0.0000 -0.0000 +1.0000}     { +Y -X +Z };   # Beams
#    1007                 dispBeamColumn     {+0.0000 +1.0000 +0.0000}     {-1.0000 +0.0000 +0.0000}     {+0.0000 -0.0000 +1.0000}     { +Y -X +Z };   # Beams
#    1008                 dispBeamColumn     {+0.0000 +1.0000 +0.0000}     {-1.0000 +0.0000 +0.0000}     {+0.0000 -0.0000 +1.0000}     { +Y -X +Z };   # Beams
#    1009                 dispBeamColumn     {+1.0000 +0.0000 +0.0000}     {+0.0000 +1.0000 +0.0000}     {+0.0000 +0.0000 +1.0000}     { +X +Y +Z };   # Beams
#    1010                 dispBeamColumn     {+1.0000 +0.0000 +0.0000}     {+0.0000 +1.0000 +0.0000}     {+0.0000 +0.0000 +1.0000}     { +X +Y +Z };   # Beams
#    1011                 dispBeamColumn     {+1.0000 +0.0000 +0.0000}     {+0.0000 +1.0000 +0.0000}     {+0.0000 +0.0000 +1.0000}     { +X +Y +Z };   # Beams
#    1012                 dispBeamColumn     {+1.0000 +0.0000 +0.0000}     {+0.0000 +1.0000 +0.0000}     {+0.0000 +0.0000 +1.0000}     { +X +Y +Z };   # Beams
#    1013                 dispBeamColumn     {+1.0000 +0.0000 +0.0000}     {+0.0000 +1.0000 +0.0000}     {+0.0000 +0.0000 +1.0000}     { +X +Y +Z };   # Beams
#    1014                 dispBeamColumn     {+1.0000 +0.0000 +0.0000}     {+0.0000 +1.0000 +0.0000}     {+0.0000 +0.0000 +1.0000}     { +X +Y +Z };   # Beams
#    1015                 dispBeamColumn     {+1.0000 -0.0000 +0.0000}     {+0.0000 +1.0000 -0.0000}     {+0.0000 +0.0000 +1.0000}     { +X +Y +Z };   # Beams
#    1016                 dispBeamColumn     {+0.0000 +1.0000 +0.0000}     {-1.0000 +0.0000 +0.0000}     {+0.0000 -0.0000 +1.0000}     { +Y -X +Z };   # Beams
#    1017                 dispBeamColumn     {+0.0000 +1.0000 +0.0000}     {-1.0000 +0.0000 +0.0000}     {+0.0000 -0.0000 +1.0000}     { +Y -X +Z };   # Beams
#    1018                 dispBeamColumn     {+1.0000 +0.0000 +0.0000}     {+0.0000 +1.0000 +0.0000}     {+0.0000 +0.0000 +1.0000}     { +X +Y +Z };   # Beams
#    1019                 dispBeamColumn     {+1.0000 +0.0000 +0.0000}     {+0.0000 +1.0000 +0.0000}     {+0.0000 +0.0000 +1.0000}     { +X +Y +Z };   # Beams
#    1020                 dispBeamColumn     {+1.0000 +0.0000 +0.0000}     {+0.0000 +1.0000 +0.0000}     {+0.0000 +0.0000 +1.0000}     { +X +Y +Z };   # Beams
#    1021                 dispBeamColumn     {+1.0000 +0.0000 +0.0000}     {+0.0000 +1.0000 +0.0000}     {+0.0000 +0.0000 +1.0000}     { +X +Y +Z };   # Beams
#    1022                 dispBeamColumn     {+1.0000 +0.0000 +0.0000}     {+0.0000 +1.0000 +0.0000}     {+0.0000 +0.0000 +1.0000}     { +X +Y +Z };   # Beams
#    1023                 dispBeamColumn     {+1.0000 +0.0000 +0.0000}     {+0.0000 +1.0000 +0.0000}     {+0.0000 +0.0000 +1.0000}     { +X +Y +Z };   # Beams
#    1024                 dispBeamColumn     {+1.0000 +0.0000 +0.0000}     {+0.0000 +1.0000 +0.0000}     {+0.0000 +0.0000 +1.0000}     { +X +Y +Z };   # Beams
#    1025                 dispBeamColumn     {+0.0000 +1.0000 +0.0000}     {-1.0000 +0.0000 +0.0000}     {+0.0000 -0.0000 +1.0000}     { +Y -X +Z };   # Beams
#    1026                 dispBeamColumn     {+0.0000 +1.0000 +0.0000}     {-1.0000 +0.0000 +0.0000}     {+0.0000 -0.0000 +1.0000}     { +Y -X +Z };   # Beams
#    1027                 dispBeamColumn     {+0.0000 +1.0000 +0.0000}     {-1.0000 +0.0000 +0.0000}     {+0.0000 -0.0000 +1.0000}     { +Y -X +Z };   # Beams
#    1028                 dispBeamColumn     {+0.0000 +1.0000 +0.0000}     {-1.0000 +0.0000 +0.0000}     {+0.0000 -0.0000 +1.0000}     { +Y -X +Z };   # Beams
#    1029                 dispBeamColumn     {+0.0000 +1.0000 +0.0000}     {-1.0000 +0.0000 +0.0000}     {+0.0000 -0.0000 +1.0000}     { +Y -X +Z };   # Beams
#    1030                 dispBeamColumn     {+1.0000 +0.0000 +0.0000}     {+0.0000 +1.0000 +0.0000}     {+0.0000 +0.0000 +1.0000}     { +X +Y +Z };   # Beams
#    1031                 dispBeamColumn     {+1.0000 +0.0000 +0.0000}     {+0.0000 +1.0000 +0.0000}     {+0.0000 +0.0000 +1.0000}     { +X +Y +Z };   # Beams
#    1032                 dispBeamColumn     {+1.0000 +0.0000 +0.0000}     {+0.0000 +1.0000 +0.0000}     {+0.0000 +0.0000 +1.0000}     { +X +Y +Z };   # Beams
#    1033                 dispBeamColumn     {+1.0000 +0.0000 +0.0000}     {+0.0000 +1.0000 +0.0000}     {+0.0000 +0.0000 +1.0000}     { +X +Y +Z };   # Beams
#    1034                 dispBeamColumn     {+1.0000 +0.0000 +0.0000}     {+0.0000 +1.0000 +0.0000}     {+0.0000 +0.0000 +1.0000}     { +X +Y +Z };   # Beams
#    1035                 dispBeamColumn     {+1.0000 +0.0000 +0.0000}     {+0.0000 +1.0000 +0.0000}     {+0.0000 +0.0000 +1.0000}     { +X +Y +Z };   # Beams
#    1036                 dispBeamColumn     {+1.0000 +0.0000 +0.0000}     {+0.0000 +1.0000 +0.0000}     {+0.0000 +0.0000 +1.0000}     { +X +Y +Z };   # Beams
#    1037                 dispBeamColumn     {+1.0000 +0.0000 +0.0000}     {+0.0000 +1.0000 +0.0000}     {+0.0000 +0.0000 +1.0000}     { +X +Y +Z };   # Beams
#    1038                 dispBeamColumn     {+1.0000 +0.0000 +0.0000}     {+0.0000 +1.0000 +0.0000}     {+0.0000 +0.0000 +1.0000}     { +X +Y +Z };   # Beams
#    1039                 dispBeamColumn     {+1.0000 +0.0000 +0.0000}     {+0.0000 +1.0000 +0.0000}     {+0.0000 +0.0000 +1.0000}     { +X +Y +Z };   # Beams
#    1040                 dispBeamColumn     {+1.0000 +0.0000 +0.0000}     {+0.0000 +1.0000 +0.0000}     {+0.0000 +0.0000 +1.0000}     { +X +Y +Z };   # Beams
#    1041                 dispBeamColumn     {+0.0000 +1.0000 +0.0000}     {-1.0000 +0.0000 +0.0000}     {+0.0000 -0.0000 +1.0000}     { +Y -X +Z };   # Beams
#    1042                 dispBeamColumn     {+0.0000 +1.0000 +0.0000}     {-1.0000 +0.0000 +0.0000}     {+0.0000 -0.0000 +1.0000}     { +Y -X +Z };   # Beams
#    1043                 dispBeamColumn     {+0.0000 +1.0000 +0.0000}     {-1.0000 +0.0000 +0.0000}     {+0.0000 -0.0000 +1.0000}     { +Y -X +Z };   # Beams
#    1044                 dispBeamColumn     {+0.0000 +1.0000 +0.0000}     {-1.0000 +0.0000 +0.0000}     {+0.0000 -0.0000 +1.0000}     { +Y -X +Z };   # Beams
#    1045                 dispBeamColumn     {+0.0000 +1.0000 +0.0000}     {-1.0000 +0.0000 +0.0000}     {+0.0000 -0.0000 +1.0000}     { +Y -X +Z };   # Beams
#    1046                 dispBeamColumn     {+1.0000 +0.0000 +0.0000}     {-0.0000 +1.0000 +0.0000}     {+0.0000 -0.0000 +1.0000}     { +X +Y +Z };   # Beams
#    1047                 dispBeamColumn     {+1.0000 +0.0000 +0.0000}     {+0.0000 +1.0000 +0.0000}     {+0.0000 +0.0000 +1.0000}     { +X +Y +Z };   # Beams
#    1048                 dispBeamColumn     {+1.0000 -0.0000 +0.0000}     {+0.0000 +1.0000 -0.0000}     {+0.0000 +0.0000 +1.0000}     { +X +Y +Z };   # Beams
#    1049                 dispBeamColumn     {+1.0000 -0.0000 +0.0000}     {+0.0000 +1.0000 -0.0000}     {+0.0000 +0.0000 +1.0000}     { +X +Y +Z };   # Beams
#    1050                 dispBeamColumn     {+0.0000 +1.0000 +0.0000}     {-1.0000 +0.0000 +0.0000}     {+0.0000 -0.0000 +1.0000}     { +Y -X +Z };   # Beams
#    1051                 dispBeamColumn     {+0.0000 +1.0000 +0.0000}     {-1.0000 +0.0000 +0.0000}     {+0.0000 -0.0000 +1.0000}     { +Y -X +Z };   # Beams
#    1052                 dispBeamColumn     {+1.0000 +0.0000 +0.0000}     {+0.0000 +1.0000 +0.0000}     {+0.0000 +0.0000 +1.0000}     { +X +Y +Z };   # Beams
#    1053                 dispBeamColumn     {+1.0000 +0.0000 +0.0000}     {+0.0000 +1.0000 +0.0000}     {+0.0000 +0.0000 +1.0000}     { +X +Y +Z };   # Beams
#    1054                 dispBeamColumn     {+1.0000 +0.0000 +0.0000}     {+0.0000 +1.0000 +0.0000}     {+0.0000 +0.0000 +1.0000}     { +X +Y +Z };   # Beams
#    1055                 dispBeamColumn     {+1.0000 +0.0000 +0.0000}     {+0.0000 +1.0000 +0.0000}     {+0.0000 +0.0000 +1.0000}     { +X +Y +Z };   # Beams
#    1056                 dispBeamColumn     {+0.0000 +1.0000 +0.0000}     {-1.0000 +0.0000 +0.0000}     {+0.0000 -0.0000 +1.0000}     { +Y -X +Z };   # Beams
#    1057                 dispBeamColumn     {+0.0000 +1.0000 +0.0000}     {-1.0000 +0.0000 +0.0000}     {+0.0000 -0.0000 +1.0000}     { +Y -X +Z };   # Beams
#    1058                 dispBeamColumn     {+0.0000 +1.0000 +0.0000}     {-1.0000 +0.0000 +0.0000}     {+0.0000 -0.0000 +1.0000}     { +Y -X +Z };   # Beams
#    1059                 dispBeamColumn     {+0.0000 +1.0000 +0.0000}     {-1.0000 +0.0000 +0.0000}     {+0.0000 -0.0000 +1.0000}     { +Y -X +Z };   # Beams
#    1060                 dispBeamColumn     {+0.0000 +1.0000 +0.0000}     {-1.0000 +0.0000 +0.0000}     {+0.0000 -0.0000 +1.0000}     { +Y -X +Z };   # Beams
#    1061                 dispBeamColumn     {+1.0000 +0.0000 +0.0000}     {+0.0000 +1.0000 +0.0000}     {+0.0000 +0.0000 +1.0000}     { +X +Y +Z };   # Beams
#    1062                 dispBeamColumn     {+1.0000 +0.0000 +0.0000}     {+0.0000 +1.0000 +0.0000}     {+0.0000 +0.0000 +1.0000}     { +X +Y +Z };   # Beams
#    1063                 dispBeamColumn     {+1.0000 +0.0000 +0.0000}     {+0.0000 +1.0000 +0.0000}     {+0.0000 +0.0000 +1.0000}     { +X +Y +Z };   # Beams
#    1064                 dispBeamColumn     {+1.0000 +0.0000 +0.0000}     {+0.0000 +1.0000 +0.0000}     {+0.0000 +0.0000 +1.0000}     { +X +Y +Z };   # Beams
#    1065                 dispBeamColumn     {+1.0000 +0.0000 +0.0000}     {+0.0000 +1.0000 +0.0000}     {+0.0000 +0.0000 +1.0000}     { +X +Y +Z };   # Beams
#    1066                 dispBeamColumn     {+1.0000 +0.0000 +0.0000}     {+0.0000 +1.0000 +0.0000}     {+0.0000 +0.0000 +1.0000}     { +X +Y +Z };   # Beams
#    1067                 dispBeamColumn     {+1.0000 +0.0000 +0.0000}     {+0.0000 +1.0000 +0.0000}     {+0.0000 +0.0000 +1.0000}     { +X +Y +Z };   # Beams
#    1068                 dispBeamColumn     {+1.0000 +0.0000 +0.0000}     {+0.0000 +1.0000 +0.0000}     {+0.0000 +0.0000 +1.0000}     { +X +Y +Z };   # Beams
#    1069                 dispBeamColumn     {+1.0000 +0.0000 +0.0000}     {+0.0000 +1.0000 +0.0000}     {+0.0000 +0.0000 +1.0000}     { +X +Y +Z };   # Beams
#    1070                 dispBeamColumn     {+1.0000 +0.0000 +0.0000}     {+0.0000 +1.0000 +0.0000}     {+0.0000 +0.0000 +1.0000}     { +X +Y +Z };   # Beams
#    1071                 dispBeamColumn     {+1.0000 +0.0000 +0.0000}     {+0.0000 +1.0000 +0.0000}     {+0.0000 +0.0000 +1.0000}     { +X +Y +Z };   # Beams
#    1072                 dispBeamColumn     {+0.0000 +1.0000 +0.0000}     {-1.0000 +0.0000 +0.0000}     {+0.0000 -0.0000 +1.0000}     { +Y -X +Z };   # Beams
#    1073                 dispBeamColumn     {+0.0000 +1.0000 +0.0000}     {-1.0000 +0.0000 +0.0000}     {+0.0000 -0.0000 +1.0000}     { +Y -X +Z };   # Beams
#    1074                 dispBeamColumn     {+0.0000 +1.0000 +0.0000}     {-1.0000 +0.0000 +0.0000}     {+0.0000 -0.0000 +1.0000}     { +Y -X +Z };   # Beams
#    1075                 dispBeamColumn     {+0.0000 +1.0000 +0.0000}     {-1.0000 +0.0000 +0.0000}     {+0.0000 -0.0000 +1.0000}     { +Y -X +Z };   # Beams
#    1076                 dispBeamColumn     {+0.0000 +1.0000 +0.0000}     {-1.0000 +0.0000 +0.0000}     {+0.0000 -0.0000 +1.0000}     { +Y -X +Z };   # Beams
#    1077                 dispBeamColumn     {+1.0000 +0.0000 +0.0000}     {-0.0000 +1.0000 +0.0000}     {+0.0000 -0.0000 +1.0000}     { +X +Y +Z };   # Beams
#    1078                 dispBeamColumn     {+1.0000 +0.0000 +0.0000}     {-0.0000 +1.0000 +0.0000}     {+0.0000 -0.0000 +1.0000}     { +X +Y +Z };   # Beams
#    1079                 dispBeamColumn     {+1.0000 +0.0000 +0.0000}     {+0.0000 +1.0000 +0.0000}     {+0.0000 +0.0000 +1.0000}     { +X +Y +Z };   # Beams
#    1080                 dispBeamColumn     {+1.0000 +0.0000 +0.0000}     {+0.0000 +1.0000 +0.0000}     {+0.0000 +0.0000 +1.0000}     { +X +Y +Z };   # Beams
#    1081                 dispBeamColumn     {+1.0000 +0.0000 +0.0000}     {+0.0000 +1.0000 +0.0000}     {+0.0000 +0.0000 +1.0000}     { +X +Y +Z };   # Beams
#    1082                 dispBeamColumn     {+1.0000 +0.0000 +0.0000}     {+0.0000 +1.0000 +0.0000}     {+0.0000 +0.0000 +1.0000}     { +X +Y +Z };   # Beams
#    1083                 dispBeamColumn     {+1.0000 +0.0000 +0.0000}     {+0.0000 +1.0000 +0.0000}     {+0.0000 +0.0000 +1.0000}     { +X +Y +Z };   # Beams
#    1084                 dispBeamColumn     {+0.0000 +1.0000 +0.0000}     {-1.0000 +0.0000 +0.0000}     {+0.0000 -0.0000 +1.0000}     { +Y -X +Z };   # Beams
#    1085                 dispBeamColumn     {+0.0000 +1.0000 +0.0000}     {-1.0000 +0.0000 +0.0000}     {+0.0000 -0.0000 +1.0000}     { +Y -X +Z };   # Beams
#    1086                 dispBeamColumn     {+1.0000 +0.0000 +0.0000}     {+0.0000 +1.0000 +0.0000}     {+0.0000 +0.0000 +1.0000}     { +X +Y +Z };   # Beams
#    1087                 dispBeamColumn     {+1.0000 +0.0000 +0.0000}     {+0.0000 +1.0000 +0.0000}     {+0.0000 +0.0000 +1.0000}     { +X +Y +Z };   # Beams
#    1088                 dispBeamColumn     {+1.0000 +0.0000 +0.0000}     {+0.0000 +1.0000 +0.0000}     {+0.0000 +0.0000 +1.0000}     { +X +Y +Z };   # Beams
#    1089                 dispBeamColumn     {+1.0000 +0.0000 +0.0000}     {+0.0000 +1.0000 +0.0000}     {+0.0000 +0.0000 +1.0000}     { +X +Y +Z };   # Beams
#    1090                 dispBeamColumn     {+1.0000 +0.0000 +0.0000}     {+0.0000 +1.0000 +0.0000}     {+0.0000 +0.0000 +1.0000}     { +X +Y +Z };   # Beams
#    1091                 dispBeamColumn     {+1.0000 +0.0000 +0.0000}     {+0.0000 +1.0000 +0.0000}     {+0.0000 +0.0000 +1.0000}     { +X +Y +Z };   # Beams
#    1092                 dispBeamColumn     {+1.0000 +0.0000 +0.0000}     {+0.0000 +1.0000 +0.0000}     {+0.0000 +0.0000 +1.0000}     { +X +Y +Z };   # Beams
#    1093                 dispBeamColumn     {+0.0000 +1.0000 +0.0000}     {-1.0000 +0.0000 +0.0000}     {+0.0000 -0.0000 +1.0000}     { +Y -X +Z };   # Beams
#    1094                 dispBeamColumn     {+0.0000 +1.0000 +0.0000}     {-1.0000 +0.0000 +0.0000}     {+0.0000 -0.0000 +1.0000}     { +Y -X +Z };   # Beams
#    1095                 dispBeamColumn     {+0.0000 +1.0000 +0.0000}     {-1.0000 +0.0000 +0.0000}     {+0.0000 -0.0000 +1.0000}     { +Y -X +Z };   # Beams
#    1096                 dispBeamColumn     {+0.0000 +1.0000 +0.0000}     {-1.0000 +0.0000 +0.0000}     {+0.0000 -0.0000 +1.0000}     { +Y -X +Z };   # Beams
#    1097                 dispBeamColumn     {+0.0000 +1.0000 +0.0000}     {-1.0000 +0.0000 +0.0000}     {+0.0000 -0.0000 +1.0000}     { +Y -X +Z };   # Beams
#    1098                 dispBeamColumn     {+1.0000 +0.0000 +0.0000}     {+0.0000 +1.0000 +0.0000}     {+0.0000 +0.0000 +1.0000}     { +X +Y +Z };   # Beams
#    1099                 dispBeamColumn     {+1.0000 +0.0000 +0.0000}     {+0.0000 +1.0000 +0.0000}     {+0.0000 +0.0000 +1.0000}     { +X +Y +Z };   # Beams
#    1100                 dispBeamColumn     {+1.0000 +0.0000 +0.0000}     {+0.0000 +1.0000 +0.0000}     {+0.0000 +0.0000 +1.0000}     { +X +Y +Z };   # Beams
#    1101                 dispBeamColumn     {+1.0000 +0.0000 +0.0000}     {+0.0000 +1.0000 +0.0000}     {+0.0000 +0.0000 +1.0000}     { +X +Y +Z };   # Beams
#    1102                 dispBeamColumn     {+1.0000 +0.0000 +0.0000}     {+0.0000 +1.0000 +0.0000}     {+0.0000 +0.0000 +1.0000}     { +X +Y +Z };   # Beams
#    1103                 dispBeamColumn     {+1.0000 +0.0000 +0.0000}     {+0.0000 +1.0000 +0.0000}     {+0.0000 +0.0000 +1.0000}     { +X +Y +Z };   # Beams
#    1104                 dispBeamColumn     {+1.0000 +0.0000 +0.0000}     {+0.0000 +1.0000 +0.0000}     {+0.0000 +0.0000 +1.0000}     { +X +Y +Z };   # Beams
#    1105                 dispBeamColumn     {+0.0000 +1.0000 +0.0000}     {-1.0000 +0.0000 +0.0000}     {+0.0000 -0.0000 +1.0000}     { +Y -X +Z };   # Beams
#    1106                 dispBeamColumn     {+0.0000 +1.0000 +0.0000}     {-1.0000 +0.0000 +0.0000}     {+0.0000 -0.0000 +1.0000}     { +Y -X +Z };   # Beams
#    1107                 dispBeamColumn     {+0.0000 +1.0000 +0.0000}     {-1.0000 +0.0000 +0.0000}     {+0.0000 -0.0000 +1.0000}     { +Y -X +Z };   # Beams
#    1108                 dispBeamColumn     {+0.0000 +1.0000 +0.0000}     {-1.0000 +0.0000 +0.0000}     {+0.0000 -0.0000 +1.0000}     { +Y -X +Z };   # Beams
#    1109                 dispBeamColumn     {+0.0000 +1.0000 +0.0000}     {-1.0000 +0.0000 +0.0000}     {+0.0000 -0.0000 +1.0000}     { +Y -X +Z };   # Beams
#    1110                 dispBeamColumn     {+0.0000 +1.0000 +0.0000}     {-1.0000 +0.0000 +0.0000}     {+0.0000 -0.0000 +1.0000}     { +Y -X +Z };   # Beams
#    1111                 dispBeamColumn     {+0.0000 +1.0000 +0.0000}     {-1.0000 +0.0000 +0.0000}     {+0.0000 -0.0000 +1.0000}     { +Y -X +Z };   # Beams
#    1112                 dispBeamColumn     {+0.0000 +1.0000 +0.0000}     {-1.0000 +0.0000 +0.0000}     {+0.0000 -0.0000 +1.0000}     { +Y -X +Z };   # Beams
#    1113                 dispBeamColumn     {+0.0000 +1.0000 +0.0000}     {-1.0000 +0.0000 +0.0000}     {+0.0000 -0.0000 +1.0000}     { +Y -X +Z };   # Beams
#    1114                 dispBeamColumn     {+0.0000 +1.0000 +0.0000}     {-1.0000 +0.0000 +0.0000}     {+0.0000 -0.0000 +1.0000}     { +Y -X +Z };   # Beams
#    1115                 dispBeamColumn     {+0.0000 +1.0000 +0.0000}     {-1.0000 +0.0000 +0.0000}     {+0.0000 -0.0000 +1.0000}     { +Y -X +Z };   # Beams
#    1116                 dispBeamColumn     {+0.0000 +1.0000 +0.0000}     {-1.0000 +0.0000 +0.0000}     {+0.0000 -0.0000 +1.0000}     { +Y -X +Z };   # Beams
#    1117                 dispBeamColumn     {+0.0000 -1.0000 +0.0000}     {+1.0000 +0.0000 -0.0000}     {+0.0000 +0.0000 +1.0000}     { -Y +X +Z };   # Beams
#    1118                 dispBeamColumn     {+0.0000 -1.0000 +0.0000}     {+1.0000 +0.0000 -0.0000}     {+0.0000 +0.0000 +1.0000}     { -Y +X +Z };   # Beams
#    1119                 dispBeamColumn     {+0.0000 -1.0000 +0.0000}     {+1.0000 +0.0000 -0.0000}     {+0.0000 +0.0000 +1.0000}     { -Y +X +Z };   # Beams
#    1120                 dispBeamColumn     {+0.0000 -1.0000 +0.0000}     {+1.0000 +0.0000 -0.0000}     {+0.0000 +0.0000 +1.0000}     { -Y +X +Z };   # Beams
#    1121                 dispBeamColumn     {+0.0000 -1.0000 +0.0000}     {+1.0000 +0.0000 -0.0000}     {+0.0000 +0.0000 +1.0000}     { -Y +X +Z };   # Beams
#    1122                 dispBeamColumn     {+0.0000 -1.0000 +0.0000}     {+1.0000 +0.0000 -0.0000}     {+0.0000 +0.0000 +1.0000}     { -Y +X +Z };   # Beams
#    1123                 dispBeamColumn     {+0.0000 -1.0000 +0.0000}     {+1.0000 +0.0000 -0.0000}     {+0.0000 +0.0000 +1.0000}     { -Y +X +Z };   # Beams
#    1124                 dispBeamColumn     {+0.0000 -1.0000 +0.0000}     {+1.0000 +0.0000 -0.0000}     {+0.0000 +0.0000 +1.0000}     { -Y +X +Z };   # Beams
#    1125                 dispBeamColumn     {+0.0000 -1.0000 +0.0000}     {+1.0000 +0.0000 -0.0000}     {+0.0000 +0.0000 +1.0000}     { -Y +X +Z };   # Beams
#    1126                 dispBeamColumn     {+0.0000 -1.0000 +0.0000}     {+1.0000 +0.0000 -0.0000}     {+0.0000 +0.0000 +1.0000}     { -Y +X +Z };   # Beams
#    1127                 dispBeamColumn     {+0.0000 -1.0000 +0.0000}     {+1.0000 +0.0000 -0.0000}     {+0.0000 +0.0000 +1.0000}     { -Y +X +Z };   # Beams
#    1128                 dispBeamColumn     {+0.0000 -1.0000 +0.0000}     {+1.0000 +0.0000 -0.0000}     {+0.0000 +0.0000 +1.0000}     { -Y +X +Z };   # Beams
#    1129                 dispBeamColumn     {+0.0000 -1.0000 +0.0000}     {+1.0000 +0.0000 -0.0000}     {+0.0000 +0.0000 +1.0000}     { -Y +X +Z };   # Beams
#    1130                 dispBeamColumn     {+0.0000 -1.0000 +0.0000}     {+1.0000 +0.0000 -0.0000}     {+0.0000 +0.0000 +1.0000}     { -Y +X +Z };   # Beams
#    1131                 dispBeamColumn     {+0.0000 -1.0000 +0.0000}     {+1.0000 +0.0000 -0.0000}     {+0.0000 +0.0000 +1.0000}     { -Y +X +Z };   # Beams
#    1132                 dispBeamColumn     {+0.0000 -1.0000 +0.0000}     {+1.0000 +0.0000 -0.0000}     {+0.0000 +0.0000 +1.0000}     { -Y +X +Z };   # Beams
#    1133                 dispBeamColumn     {+0.0000 -1.0000 +0.0000}     {+1.0000 +0.0000 -0.0000}     {+0.0000 +0.0000 +1.0000}     { -Y +X +Z };   # Beams
#    1134                 dispBeamColumn     {+0.0000 -1.0000 +0.0000}     {+1.0000 +0.0000 -0.0000}     {+0.0000 +0.0000 +1.0000}     { -Y +X +Z };   # Beams
#    1135                 dispBeamColumn     {+0.0000 -1.0000 +0.0000}     {+1.0000 +0.0000 -0.0000}     {+0.0000 +0.0000 +1.0000}     { -Y +X +Z };   # Beams
#    1136                 dispBeamColumn     {+0.0000 -1.0000 +0.0000}     {+1.0000 +0.0000 -0.0000}     {+0.0000 +0.0000 +1.0000}     { -Y +X +Z };   # Beams
# ... 4 like lines cut
#    1141                 dispBeamColumn     {+1.0000 +0.0000 +0.0000}     {+0.0000 +1.0000 +0.0000}     {+0.0000 +0.0000 +1.0000}     { +X +Y +Z };   # Beams
#    1142                 dispBeamColumn     {+1.0000 +0.0000 +0.0000}     {+0.0000 +1.0000 +0.0000}     {+0.0000 +0.0000 +1.0000}     { +X +Y +Z };   # Beams
#    1143                 dispBeamColumn     {+1.0000 +0.0000 +0.0000}     {+0.0000 +1.0000 +0.0000}     {+0.0000 +0.0000 +1.0000}     { +X +Y +Z };   # Beams
#    1144                 dispBeamColumn     {+1.0000 +0.0000 +0.0000}     {+0.0000 +1.0000 +0.0000}     {+0.0000 +0.0000 +1.0000}     { +X +Y +Z };   # Beams
#    1145                 dispBeamColumn     {+1.0000 +0.0000 +0.0000}     {+0.0000 +1.0000 +0.0000}     {+0.0000 +0.0000 +1.0000}     { +X +Y +Z };   # Beams
#    1146                 dispBeamColumn     {+1.0000 +0.0000 +0.0000}     {+0.0000 +1.0000 +0.0000}     {+0.0000 +0.0000 +1.0000}     { +X +Y +Z };   # Beams
#    1147                 dispBeamColumn     {+1.0000 +0.0000 +0.0000}     {+0.0000 +1.0000 +0.0000}     {+0.0000 +0.0000 +1.0000}     { +X +Y +Z };   # Beams
#    1148                 dispBeamColumn     {+1.0000 +0.0000 +0.0000}     {+0.0000 +1.0000 +0.0000}     {+0.0000 +0.0000 +1.0000}     { +X +Y +Z };   # Beams
#    1149                 dispBeamColumn     {+1.0000 +0.0000 +0.0000}     {+0.0000 +1.0000 +0.0000}     {+0.0000 +0.0000 +1.0000}     { +X +Y +Z };   # Beams
#    1150                 dispBeamColumn     {+1.0000 +0.0000 +0.0000}     {+0.0000 +1.0000 +0.0000}     {+0.0000 +0.0000 +1.0000}     { +X +Y +Z };   # Beams
#    1151                 dispBeamColumn     {+1.0000 +0.0000 +0.0000}     {+0.0000 +1.0000 +0.0000}     {+0.0000 +0.0000 +1.0000}     { +X +Y +Z };   # Beams
#    1152                 dispBeamColumn     {+1.0000 +0.0000 +0.0000}     {+0.0000 +1.0000 +0.0000}     {+0.0000 +0.0000 +1.0000}     { +X +Y +Z };   # Beams
#    1153                 dispBeamColumn     {+1.0000 +0.0000 +0.0000}     {+0.0000 +1.0000 +0.0000}     {+0.0000 +0.0000 +1.0000}     { +X +Y +Z };   # Beams
#    1154                 dispBeamColumn     {+1.0000 +0.0000 +0.0000}     {+0.0000 +1.0000 +0.0000}     {+0.0000 +0.0000 +1.0000}     { +X +Y +Z };   # Beams
#    1155                 dispBeamColumn     {+1.0000 +0.0000 +0.0000}     {+0.0000 +1.0000 +0.0000}     {+0.0000 +0.0000 +1.0000}     { +X +Y +Z };   # Beams
#    1156                 dispBeamColumn     {+1.0000 +0.0000 +0.0000}     {+0.0000 +1.0000 +0.0000}     {+0.0000 +0.0000 +1.0000}     { +X +Y +Z };   # Beams
#    1157                 dispBeamColumn     {+0.0000 +1.0000 +0.0000}     {-1.0000 +0.0000 +0.0000}     {+0.0000 -0.0000 +1.0000}     { +Y -X +Z };   # Beams
#    1158                 dispBeamColumn     {+0.0000 +1.0000 +0.0000}     {-1.0000 +0.0000 +0.0000}     {+0.0000 -0.0000 +1.0000}     { +Y -X +Z };   # Beams
#    1159                 dispBeamColumn     {+0.0000 +1.0000 +0.0000}     {-1.0000 +0.0000 +0.0000}     {+0.0000 -0.0000 +1.0000}     { +Y -X +Z };   # Beams
#    1160                 dispBeamColumn     {+0.0000 +1.0000 +0.0000}     {-1.0000 +0.0000 +0.0000}     {+0.0000 -0.0000 +1.0000}     { +Y -X +Z };   # Beams
#    1161                 dispBeamColumn     {+0.0000 +1.0000 +0.0000}     {-1.0000 +0.0000 +0.0000}     {+0.0000 -0.0000 +1.0000}     { +Y -X +Z };   # Beams
#    1162                 dispBeamColumn     {+0.0000 +1.0000 +0.0000}     {-1.0000 +0.0000 +0.0000}     {+0.0000 -0.0000 +1.0000}     { +Y -X +Z };   # Beams
#    1163                 dispBeamColumn     {+0.0000 +1.0000 +0.0000}     {-1.0000 +0.0000 +0.0000}     {+0.0000 -0.0000 +1.0000}     { +Y -X +Z };   # Beams
#    1164                 dispBeamColumn     {+0.0000 +1.0000 +0.0000}     {-1.0000 +0.0000 +0.0000}     {+0.0000 -0.0000 +1.0000}     { +Y -X +Z };   # Beams
#    1165                 dispBeamColumn     {+0.0000 +1.0000 +0.0000}     {-1.0000 +0.0000 +0.0000}     {+0.0000 -0.0000 +1.0000}     { +Y -X +Z };   # Beams
#    1166                 dispBeamColumn     {+0.0000 +1.0000 +0.0000}     {-1.0000 +0.0000 +0.0000}     {+0.0000 -0.0000 +1.0000}     { +Y -X +Z };   # Beams
#    1167                 dispBeamColumn     {+0.0000 +1.0000 +0.0000}     {-1.0000 +0.0000 +0.0000}     {+0.0000 -0.0000 +1.0000}     { +Y -X +Z };   # Beams
#    1168                 dispBeamColumn     {+0.0000 +1.0000 +0.0000}     {-1.0000 +0.0000 +0.0000}     {+0.0000 -0.0000 +1.0000}     { +Y -X +Z };   # Beams
#    1169                 dispBeamColumn     {+0.0000 +1.0000 +0.0000}     {-1.0000 +0.0000 +0.0000}     {+0.0000 -0.0000 +1.0000}     { +Y -X +Z };   # Beams
#    1170                 dispBeamColumn     {+0.0000 +1.0000 +0.0000}     {-1.0000 +0.0000 +0.0000}     {+0.0000 -0.0000 +1.0000}     { +Y -X +Z };   # Beams
#    1171                 dispBeamColumn     {+0.0000 +1.0000 +0.0000}     {-1.0000 +0.0000 +0.0000}     {+0.0000 -0.0000 +1.0000}     { +Y -X +Z };   # Beams
#    1172                 dispBeamColumn     {+0.0000 +1.0000 +0.0000}     {-1.0000 +0.0000 +0.0000}     {+0.0000 -0.0000 +1.0000}     { +Y -X +Z };   # Beams
